
---------- Begin Simulation Statistics ----------
simSeconds                                   0.007620                       # Number of seconds simulated (Second)
simTicks                                   7619534000                       # Number of ticks simulated (Tick)
finalTick                                 11742786000                       # Number of ticks from beginning of simulation (restored from checkpoints and never reset) (Tick)
simFreq                                  1000000000000                       # The number of ticks per simulated second ((Tick/Second))
hostSeconds                                      5.40                       # Real time elapsed on the host (Second)
hostTickRate                               1411023269                       # The number of ticks simulated per host second (ticks/s) ((Tick/Second))
hostMemory                                     692720                       # Number of bytes of host memory used (Byte)
simInsts                                      6068273                       # Number of instructions simulated (Count)
simOps                                        9252718                       # Number of ops (including micro ops) simulated (Count)
hostInstRate                                  1123721                       # Simulator instruction rate (inst/s) ((Count/Second))
hostOpRate                                    1713410                       # Simulator op (including micro ops) rate (op/s) ((Count/Second))
system.clk_domain.clock                          1000                       # Clock period in ticks (Tick)
system.clk_domain.voltage_domain.voltage            1                       # Voltage in Volts (Volt)
system.cpu.numCycles                          7619534                       # Number of cpu cycles simulated (Cycle)
system.cpu.numWorkItemsStarted                      0                       # Number of work items this cpu started (Count)
system.cpu.numWorkItemsCompleted                    0                       # Number of work items this cpu completed (Count)
system.cpu.dcache.demandHits::cpu.data        2099251                       # number of demand (read+write) hits (Count)
system.cpu.dcache.demandHits::total           2099251                       # number of demand (read+write) hits (Count)
system.cpu.dcache.overallHits::cpu.data       2099251                       # number of overall hits (Count)
system.cpu.dcache.overallHits::total          2099251                       # number of overall hits (Count)
system.cpu.dcache.demandMisses::cpu.data        30732                       # number of demand (read+write) misses (Count)
system.cpu.dcache.demandMisses::total           30732                       # number of demand (read+write) misses (Count)
system.cpu.dcache.overallMisses::cpu.data        30732                       # number of overall misses (Count)
system.cpu.dcache.overallMisses::total          30732                       # number of overall misses (Count)
system.cpu.dcache.demandMissLatency::cpu.data    440878000                       # number of demand (read+write) miss ticks (Tick)
system.cpu.dcache.demandMissLatency::total    440878000                       # number of demand (read+write) miss ticks (Tick)
system.cpu.dcache.overallMissLatency::cpu.data    440878000                       # number of overall miss ticks (Tick)
system.cpu.dcache.overallMissLatency::total    440878000                       # number of overall miss ticks (Tick)
system.cpu.dcache.demandAccesses::cpu.data      2129983                       # number of demand (read+write) accesses (Count)
system.cpu.dcache.demandAccesses::total       2129983                       # number of demand (read+write) accesses (Count)
system.cpu.dcache.overallAccesses::cpu.data      2129983                       # number of overall (read+write) accesses (Count)
system.cpu.dcache.overallAccesses::total      2129983                       # number of overall (read+write) accesses (Count)
system.cpu.dcache.demandMissRate::cpu.data     0.014428                       # miss rate for demand accesses (Ratio)
system.cpu.dcache.demandMissRate::total      0.014428                       # miss rate for demand accesses (Ratio)
system.cpu.dcache.overallMissRate::cpu.data     0.014428                       # miss rate for overall accesses (Ratio)
system.cpu.dcache.overallMissRate::total     0.014428                       # miss rate for overall accesses (Ratio)
system.cpu.dcache.demandAvgMissLatency::cpu.data 14345.893531                       # average overall miss latency in ticks ((Tick/Count))
system.cpu.dcache.demandAvgMissLatency::total 14345.893531                       # average overall miss latency in ticks ((Tick/Count))
system.cpu.dcache.overallAvgMissLatency::cpu.data 14345.893531                       # average overall miss latency ((Tick/Count))
system.cpu.dcache.overallAvgMissLatency::total 14345.893531                       # average overall miss latency ((Tick/Count))
system.cpu.dcache.blockedCycles::no_mshrs            0                       # number of cycles access was blocked (Cycle)
system.cpu.dcache.blockedCycles::no_targets            0                       # number of cycles access was blocked (Cycle)
system.cpu.dcache.blockedCauses::no_mshrs            0                       # number of times access was blocked (Count)
system.cpu.dcache.blockedCauses::no_targets            0                       # number of times access was blocked (Count)
system.cpu.dcache.avgBlocked::no_mshrs            nan                       # average number of cycles each access was blocked ((Cycle/Count))
system.cpu.dcache.avgBlocked::no_targets          nan                       # average number of cycles each access was blocked ((Cycle/Count))
system.cpu.dcache.writebacks::writebacks        30732                       # number of writebacks (Count)
system.cpu.dcache.writebacks::total             30732                       # number of writebacks (Count)
system.cpu.dcache.demandMshrMisses::cpu.data        30732                       # number of demand (read+write) MSHR misses (Count)
system.cpu.dcache.demandMshrMisses::total        30732                       # number of demand (read+write) MSHR misses (Count)
system.cpu.dcache.overallMshrMisses::cpu.data        30732                       # number of overall MSHR misses (Count)
system.cpu.dcache.overallMshrMisses::total        30732                       # number of overall MSHR misses (Count)
system.cpu.dcache.demandMshrMissLatency::cpu.data    379414000                       # number of demand (read+write) MSHR miss ticks (Tick)
system.cpu.dcache.demandMshrMissLatency::total    379414000                       # number of demand (read+write) MSHR miss ticks (Tick)
system.cpu.dcache.overallMshrMissLatency::cpu.data    379414000                       # number of overall MSHR miss ticks (Tick)
system.cpu.dcache.overallMshrMissLatency::total    379414000                       # number of overall MSHR miss ticks (Tick)
system.cpu.dcache.demandMshrMissRate::cpu.data     0.014428                       # mshr miss ratio for demand accesses (Ratio)
system.cpu.dcache.demandMshrMissRate::total     0.014428                       # mshr miss ratio for demand accesses (Ratio)
system.cpu.dcache.overallMshrMissRate::cpu.data     0.014428                       # mshr miss ratio for overall accesses (Ratio)
system.cpu.dcache.overallMshrMissRate::total     0.014428                       # mshr miss ratio for overall accesses (Ratio)
system.cpu.dcache.demandAvgMshrMissLatency::cpu.data 12345.893531                       # average overall mshr miss latency ((Tick/Count))
system.cpu.dcache.demandAvgMshrMissLatency::total 12345.893531                       # average overall mshr miss latency ((Tick/Count))
system.cpu.dcache.overallAvgMshrMissLatency::cpu.data 12345.893531                       # average overall mshr miss latency ((Tick/Count))
system.cpu.dcache.overallAvgMshrMissLatency::total 12345.893531                       # average overall mshr miss latency ((Tick/Count))
system.cpu.dcache.replacements                  30732                       # number of replacements (Count)
system.cpu.dcache.ReadReq.hits::cpu.data      1781791                       # number of ReadReq hits (Count)
system.cpu.dcache.ReadReq.hits::total         1781791                       # number of ReadReq hits (Count)
system.cpu.dcache.ReadReq.misses::cpu.data        20491                       # number of ReadReq misses (Count)
system.cpu.dcache.ReadReq.misses::total         20491                       # number of ReadReq misses (Count)
system.cpu.dcache.ReadReq.missLatency::cpu.data    225401000                       # number of ReadReq miss ticks (Tick)
system.cpu.dcache.ReadReq.missLatency::total    225401000                       # number of ReadReq miss ticks (Tick)
system.cpu.dcache.ReadReq.accesses::cpu.data      1802282                       # number of ReadReq accesses(hits+misses) (Count)
system.cpu.dcache.ReadReq.accesses::total      1802282                       # number of ReadReq accesses(hits+misses) (Count)
system.cpu.dcache.ReadReq.missRate::cpu.data     0.011369                       # miss rate for ReadReq accesses (Ratio)
system.cpu.dcache.ReadReq.missRate::total     0.011369                       # miss rate for ReadReq accesses (Ratio)
system.cpu.dcache.ReadReq.avgMissLatency::cpu.data        11000                       # average ReadReq miss latency ((Tick/Count))
system.cpu.dcache.ReadReq.avgMissLatency::total        11000                       # average ReadReq miss latency ((Tick/Count))
system.cpu.dcache.ReadReq.mshrMisses::cpu.data        20491                       # number of ReadReq MSHR misses (Count)
system.cpu.dcache.ReadReq.mshrMisses::total        20491                       # number of ReadReq MSHR misses (Count)
system.cpu.dcache.ReadReq.mshrMissLatency::cpu.data    184419000                       # number of ReadReq MSHR miss ticks (Tick)
system.cpu.dcache.ReadReq.mshrMissLatency::total    184419000                       # number of ReadReq MSHR miss ticks (Tick)
system.cpu.dcache.ReadReq.mshrMissRate::cpu.data     0.011369                       # mshr miss rate for ReadReq accesses (Ratio)
system.cpu.dcache.ReadReq.mshrMissRate::total     0.011369                       # mshr miss rate for ReadReq accesses (Ratio)
system.cpu.dcache.ReadReq.avgMshrMissLatency::cpu.data         9000                       # average ReadReq mshr miss latency ((Tick/Count))
system.cpu.dcache.ReadReq.avgMshrMissLatency::total         9000                       # average ReadReq mshr miss latency ((Tick/Count))
system.cpu.dcache.WriteReq.hits::cpu.data       317460                       # number of WriteReq hits (Count)
system.cpu.dcache.WriteReq.hits::total         317460                       # number of WriteReq hits (Count)
system.cpu.dcache.WriteReq.misses::cpu.data        10241                       # number of WriteReq misses (Count)
system.cpu.dcache.WriteReq.misses::total        10241                       # number of WriteReq misses (Count)
system.cpu.dcache.WriteReq.missLatency::cpu.data    215477000                       # number of WriteReq miss ticks (Tick)
system.cpu.dcache.WriteReq.missLatency::total    215477000                       # number of WriteReq miss ticks (Tick)
system.cpu.dcache.WriteReq.accesses::cpu.data       327701                       # number of WriteReq accesses(hits+misses) (Count)
system.cpu.dcache.WriteReq.accesses::total       327701                       # number of WriteReq accesses(hits+misses) (Count)
system.cpu.dcache.WriteReq.missRate::cpu.data     0.031251                       # miss rate for WriteReq accesses (Ratio)
system.cpu.dcache.WriteReq.missRate::total     0.031251                       # miss rate for WriteReq accesses (Ratio)
system.cpu.dcache.WriteReq.avgMissLatency::cpu.data 21040.621033                       # average WriteReq miss latency ((Tick/Count))
system.cpu.dcache.WriteReq.avgMissLatency::total 21040.621033                       # average WriteReq miss latency ((Tick/Count))
system.cpu.dcache.WriteReq.mshrMisses::cpu.data        10241                       # number of WriteReq MSHR misses (Count)
system.cpu.dcache.WriteReq.mshrMisses::total        10241                       # number of WriteReq MSHR misses (Count)
system.cpu.dcache.WriteReq.mshrMissLatency::cpu.data    194995000                       # number of WriteReq MSHR miss ticks (Tick)
system.cpu.dcache.WriteReq.mshrMissLatency::total    194995000                       # number of WriteReq MSHR miss ticks (Tick)
system.cpu.dcache.WriteReq.mshrMissRate::cpu.data     0.031251                       # mshr miss rate for WriteReq accesses (Ratio)
system.cpu.dcache.WriteReq.mshrMissRate::total     0.031251                       # mshr miss rate for WriteReq accesses (Ratio)
system.cpu.dcache.WriteReq.avgMshrMissLatency::cpu.data 19040.621033                       # average WriteReq mshr miss latency ((Tick/Count))
system.cpu.dcache.WriteReq.avgMshrMissLatency::total 19040.621033                       # average WriteReq mshr miss latency ((Tick/Count))
system.cpu.dcache.power_state.pwrStateResidencyTicks::UNDEFINED  11742786000                       # Cumulative time (in ticks) in various power states (Tick)
system.cpu.dcache.tags.tagsInUse                  512                       # Average ticks per tags in use ((Tick/Count))
system.cpu.dcache.tags.totalRefs              1278329                       # Total number of references to valid blocks. (Count)
system.cpu.dcache.tags.sampledRefs              30732                       # Sample count of references to valid blocks. (Count)
system.cpu.dcache.tags.avgRefs              41.596024                       # Average number of references to valid blocks. ((Count/Count))
system.cpu.dcache.tags.warmupTick                   0                       # The tick when the warmup percentage was hit. (Tick)
system.cpu.dcache.tags.occupancies::cpu.data          512                       # Average occupied blocks per tick, per requestor ((Count/Tick))
system.cpu.dcache.tags.avgOccs::cpu.data            1                       # Average percentage of cache occupancy ((Ratio/Tick))
system.cpu.dcache.tags.avgOccs::total               1                       # Average percentage of cache occupancy ((Ratio/Tick))
system.cpu.dcache.tags.occupanciesTaskId::1024          512                       # Occupied blocks per task id (Count)
system.cpu.dcache.tags.ageTaskId_1024::0           40                       # Occupied blocks per task id, per block age (Count)
system.cpu.dcache.tags.ageTaskId_1024::1          359                       # Occupied blocks per task id, per block age (Count)
system.cpu.dcache.tags.ageTaskId_1024::2          112                       # Occupied blocks per task id, per block age (Count)
system.cpu.dcache.tags.ageTaskId_1024::4            1                       # Occupied blocks per task id, per block age (Count)
system.cpu.dcache.tags.ratioOccsTaskId::1024            1                       # Ratio of occupied blocks and all blocks, per task id (Ratio)
system.cpu.dcache.tags.tagAccesses            4290698                       # Number of tag accesses (Count)
system.cpu.dcache.tags.dataAccesses           4290698                       # Number of data accesses (Count)
system.cpu.dcache.tags.power_state.pwrStateResidencyTicks::UNDEFINED  11742786000                       # Cumulative time (in ticks) in various power states (Tick)
system.cpu.exec_context.thread_0.numInsts      3768409                       # Number of instructions committed (Count)
system.cpu.exec_context.thread_0.numOps       4751591                       # Number of ops (including micro ops) committed (Count)
system.cpu.exec_context.thread_0.numIntAluAccesses      4751605                       # Number of integer alu accesses (Count)
system.cpu.exec_context.thread_0.numFpAluAccesses            0                       # Number of float alu accesses (Count)
system.cpu.exec_context.thread_0.numVecAluAccesses            0                       # Number of vector alu accesses (Count)
system.cpu.exec_context.thread_0.numCallsReturns            2                       # Number of times a function call or return occured (Count)
system.cpu.exec_context.thread_0.numCondCtrlInsts       163861                       # Number of instructions that are conditional controls (Count)
system.cpu.exec_context.thread_0.numIntInsts      4751605                       # Number of integer instructions (Count)
system.cpu.exec_context.thread_0.numFpInsts            0                       # Number of float instructions (Count)
system.cpu.exec_context.thread_0.numVecInsts            0                       # Number of vector instructions (Count)
system.cpu.exec_context.thread_0.numIntRegReads      6226165                       # Number of times the integer registers were read (Count)
system.cpu.exec_context.thread_0.numIntRegWrites      4096154                       # Number of times the integer registers were written (Count)
system.cpu.exec_context.thread_0.numFpRegReads            0                       # Number of times the floating registers were read (Count)
system.cpu.exec_context.thread_0.numFpRegWrites            0                       # Number of times the floating registers were written (Count)
system.cpu.exec_context.thread_0.numVecRegReads            0                       # Number of times the vector registers were read (Count)
system.cpu.exec_context.thread_0.numVecRegWrites            0                       # Number of times the vector registers were written (Count)
system.cpu.exec_context.thread_0.numVecPredRegReads            0                       # Number of times the predicate registers were read (Count)
system.cpu.exec_context.thread_0.numVecPredRegWrites            0                       # Number of times the predicate registers were written (Count)
system.cpu.exec_context.thread_0.numCCRegReads       819305                       # Number of times the CC registers were read (Count)
system.cpu.exec_context.thread_0.numCCRegWrites      1966142                       # Number of times the CC registers were written (Count)
system.cpu.exec_context.thread_0.numMiscRegReads      2457745                       # Number of times the Misc registers were read (Count)
system.cpu.exec_context.thread_0.numMiscRegWrites            0                       # Number of times the Misc registers were written (Count)
system.cpu.exec_context.thread_0.numMemRefs      2129998                       # Number of memory refs (Count)
system.cpu.exec_context.thread_0.numLoadInsts      1802282                       # Number of load instructions (Count)
system.cpu.exec_context.thread_0.numStoreInsts       327716                       # Number of store instructions (Count)
system.cpu.exec_context.thread_0.numIdleCycles            0                       # Number of idle cycles (Cycle)
system.cpu.exec_context.thread_0.numBusyCycles      7619534                       # Number of busy cycles (Cycle)
system.cpu.exec_context.thread_0.notIdleFraction            1                       # Percentage of non-idle cycles (Ratio)
system.cpu.exec_context.thread_0.idleFraction            0                       # Percentage of idle cycles (Ratio)
system.cpu.exec_context.thread_0.numBranches       163874                       # Number of branches fetched (Count)
system.cpu.exec_context.thread_0.statExecutedInstType::No_OpClass            0      0.00%      0.00% # Class of executed instruction. (Count)
system.cpu.exec_context.thread_0.statExecutedInstType::IntAlu      2621608     55.17%     55.17% # Class of executed instruction. (Count)
system.cpu.exec_context.thread_0.statExecutedInstType::IntMult            0      0.00%     55.17% # Class of executed instruction. (Count)
system.cpu.exec_context.thread_0.statExecutedInstType::IntDiv            0      0.00%     55.17% # Class of executed instruction. (Count)
system.cpu.exec_context.thread_0.statExecutedInstType::FloatAdd            0      0.00%     55.17% # Class of executed instruction. (Count)
system.cpu.exec_context.thread_0.statExecutedInstType::FloatCmp            0      0.00%     55.17% # Class of executed instruction. (Count)
system.cpu.exec_context.thread_0.statExecutedInstType::FloatCvt            0      0.00%     55.17% # Class of executed instruction. (Count)
system.cpu.exec_context.thread_0.statExecutedInstType::FloatMult            0      0.00%     55.17% # Class of executed instruction. (Count)
system.cpu.exec_context.thread_0.statExecutedInstType::FloatMultAcc            0      0.00%     55.17% # Class of executed instruction. (Count)
system.cpu.exec_context.thread_0.statExecutedInstType::FloatDiv            0      0.00%     55.17% # Class of executed instruction. (Count)
system.cpu.exec_context.thread_0.statExecutedInstType::FloatMisc            0      0.00%     55.17% # Class of executed instruction. (Count)
system.cpu.exec_context.thread_0.statExecutedInstType::FloatSqrt            0      0.00%     55.17% # Class of executed instruction. (Count)
system.cpu.exec_context.thread_0.statExecutedInstType::SimdAdd            0      0.00%     55.17% # Class of executed instruction. (Count)
system.cpu.exec_context.thread_0.statExecutedInstType::SimdAddAcc            0      0.00%     55.17% # Class of executed instruction. (Count)
system.cpu.exec_context.thread_0.statExecutedInstType::SimdAlu            0      0.00%     55.17% # Class of executed instruction. (Count)
system.cpu.exec_context.thread_0.statExecutedInstType::SimdCmp            0      0.00%     55.17% # Class of executed instruction. (Count)
system.cpu.exec_context.thread_0.statExecutedInstType::SimdCvt            0      0.00%     55.17% # Class of executed instruction. (Count)
system.cpu.exec_context.thread_0.statExecutedInstType::SimdMisc            0      0.00%     55.17% # Class of executed instruction. (Count)
system.cpu.exec_context.thread_0.statExecutedInstType::SimdMult            0      0.00%     55.17% # Class of executed instruction. (Count)
system.cpu.exec_context.thread_0.statExecutedInstType::SimdMultAcc            0      0.00%     55.17% # Class of executed instruction. (Count)
system.cpu.exec_context.thread_0.statExecutedInstType::SimdShift            0      0.00%     55.17% # Class of executed instruction. (Count)
system.cpu.exec_context.thread_0.statExecutedInstType::SimdShiftAcc            0      0.00%     55.17% # Class of executed instruction. (Count)
system.cpu.exec_context.thread_0.statExecutedInstType::SimdDiv            0      0.00%     55.17% # Class of executed instruction. (Count)
system.cpu.exec_context.thread_0.statExecutedInstType::SimdSqrt            0      0.00%     55.17% # Class of executed instruction. (Count)
system.cpu.exec_context.thread_0.statExecutedInstType::SimdFloatAdd            0      0.00%     55.17% # Class of executed instruction. (Count)
system.cpu.exec_context.thread_0.statExecutedInstType::SimdFloatAlu            0      0.00%     55.17% # Class of executed instruction. (Count)
system.cpu.exec_context.thread_0.statExecutedInstType::SimdFloatCmp            0      0.00%     55.17% # Class of executed instruction. (Count)
system.cpu.exec_context.thread_0.statExecutedInstType::SimdFloatCvt            0      0.00%     55.17% # Class of executed instruction. (Count)
system.cpu.exec_context.thread_0.statExecutedInstType::SimdFloatDiv            0      0.00%     55.17% # Class of executed instruction. (Count)
system.cpu.exec_context.thread_0.statExecutedInstType::SimdFloatMisc            0      0.00%     55.17% # Class of executed instruction. (Count)
system.cpu.exec_context.thread_0.statExecutedInstType::SimdFloatMult            0      0.00%     55.17% # Class of executed instruction. (Count)
system.cpu.exec_context.thread_0.statExecutedInstType::SimdFloatMultAcc            0      0.00%     55.17% # Class of executed instruction. (Count)
system.cpu.exec_context.thread_0.statExecutedInstType::SimdFloatSqrt            0      0.00%     55.17% # Class of executed instruction. (Count)
system.cpu.exec_context.thread_0.statExecutedInstType::SimdReduceAdd            0      0.00%     55.17% # Class of executed instruction. (Count)
system.cpu.exec_context.thread_0.statExecutedInstType::SimdReduceAlu            0      0.00%     55.17% # Class of executed instruction. (Count)
system.cpu.exec_context.thread_0.statExecutedInstType::SimdReduceCmp            0      0.00%     55.17% # Class of executed instruction. (Count)
system.cpu.exec_context.thread_0.statExecutedInstType::SimdFloatReduceAdd            0      0.00%     55.17% # Class of executed instruction. (Count)
system.cpu.exec_context.thread_0.statExecutedInstType::SimdFloatReduceCmp            0      0.00%     55.17% # Class of executed instruction. (Count)
system.cpu.exec_context.thread_0.statExecutedInstType::SimdAes            0      0.00%     55.17% # Class of executed instruction. (Count)
system.cpu.exec_context.thread_0.statExecutedInstType::SimdAesMix            0      0.00%     55.17% # Class of executed instruction. (Count)
system.cpu.exec_context.thread_0.statExecutedInstType::SimdSha1Hash            0      0.00%     55.17% # Class of executed instruction. (Count)
system.cpu.exec_context.thread_0.statExecutedInstType::SimdSha1Hash2            0      0.00%     55.17% # Class of executed instruction. (Count)
system.cpu.exec_context.thread_0.statExecutedInstType::SimdSha256Hash            0      0.00%     55.17% # Class of executed instruction. (Count)
system.cpu.exec_context.thread_0.statExecutedInstType::SimdSha256Hash2            0      0.00%     55.17% # Class of executed instruction. (Count)
system.cpu.exec_context.thread_0.statExecutedInstType::SimdShaSigma2            0      0.00%     55.17% # Class of executed instruction. (Count)
system.cpu.exec_context.thread_0.statExecutedInstType::SimdShaSigma3            0      0.00%     55.17% # Class of executed instruction. (Count)
system.cpu.exec_context.thread_0.statExecutedInstType::SimdPredAlu            0      0.00%     55.17% # Class of executed instruction. (Count)
system.cpu.exec_context.thread_0.statExecutedInstType::MemRead      1802282     37.93%     93.10% # Class of executed instruction. (Count)
system.cpu.exec_context.thread_0.statExecutedInstType::MemWrite       327716      6.90%    100.00% # Class of executed instruction. (Count)
system.cpu.exec_context.thread_0.statExecutedInstType::FloatMemRead            0      0.00%    100.00% # Class of executed instruction. (Count)
system.cpu.exec_context.thread_0.statExecutedInstType::FloatMemWrite            0      0.00%    100.00% # Class of executed instruction. (Count)
system.cpu.exec_context.thread_0.statExecutedInstType::IprAccess            0      0.00%    100.00% # Class of executed instruction. (Count)
system.cpu.exec_context.thread_0.statExecutedInstType::InstPrefetch            0      0.00%    100.00% # Class of executed instruction. (Count)
system.cpu.exec_context.thread_0.statExecutedInstType::total      4751606                       # Class of executed instruction. (Count)
system.cpu.icache.demandHits::cpu.inst        5079175                       # number of demand (read+write) hits (Count)
system.cpu.icache.demandHits::total           5079175                       # number of demand (read+write) hits (Count)
system.cpu.icache.overallHits::cpu.inst       5079175                       # number of overall hits (Count)
system.cpu.icache.overallHits::total          5079175                       # number of overall hits (Count)
system.cpu.icache.demandMisses::cpu.inst            2                       # number of demand (read+write) misses (Count)
system.cpu.icache.demandMisses::total               2                       # number of demand (read+write) misses (Count)
system.cpu.icache.overallMisses::cpu.inst            2                       # number of overall misses (Count)
system.cpu.icache.overallMisses::total              2                       # number of overall misses (Count)
system.cpu.icache.demandMissLatency::cpu.inst       230000                       # number of demand (read+write) miss ticks (Tick)
system.cpu.icache.demandMissLatency::total       230000                       # number of demand (read+write) miss ticks (Tick)
system.cpu.icache.overallMissLatency::cpu.inst       230000                       # number of overall miss ticks (Tick)
system.cpu.icache.overallMissLatency::total       230000                       # number of overall miss ticks (Tick)
system.cpu.icache.demandAccesses::cpu.inst      5079177                       # number of demand (read+write) accesses (Count)
system.cpu.icache.demandAccesses::total       5079177                       # number of demand (read+write) accesses (Count)
system.cpu.icache.overallAccesses::cpu.inst      5079177                       # number of overall (read+write) accesses (Count)
system.cpu.icache.overallAccesses::total      5079177                       # number of overall (read+write) accesses (Count)
system.cpu.icache.demandMissRate::cpu.inst     0.000000                       # miss rate for demand accesses (Ratio)
system.cpu.icache.demandMissRate::total      0.000000                       # miss rate for demand accesses (Ratio)
system.cpu.icache.overallMissRate::cpu.inst     0.000000                       # miss rate for overall accesses (Ratio)
system.cpu.icache.overallMissRate::total     0.000000                       # miss rate for overall accesses (Ratio)
system.cpu.icache.demandAvgMissLatency::cpu.inst       115000                       # average overall miss latency in ticks ((Tick/Count))
system.cpu.icache.demandAvgMissLatency::total       115000                       # average overall miss latency in ticks ((Tick/Count))
system.cpu.icache.overallAvgMissLatency::cpu.inst       115000                       # average overall miss latency ((Tick/Count))
system.cpu.icache.overallAvgMissLatency::total       115000                       # average overall miss latency ((Tick/Count))
system.cpu.icache.blockedCycles::no_mshrs            0                       # number of cycles access was blocked (Cycle)
system.cpu.icache.blockedCycles::no_targets            0                       # number of cycles access was blocked (Cycle)
system.cpu.icache.blockedCauses::no_mshrs            0                       # number of times access was blocked (Count)
system.cpu.icache.blockedCauses::no_targets            0                       # number of times access was blocked (Count)
system.cpu.icache.avgBlocked::no_mshrs            nan                       # average number of cycles each access was blocked ((Cycle/Count))
system.cpu.icache.avgBlocked::no_targets          nan                       # average number of cycles each access was blocked ((Cycle/Count))
system.cpu.icache.demandMshrMisses::cpu.inst            2                       # number of demand (read+write) MSHR misses (Count)
system.cpu.icache.demandMshrMisses::total            2                       # number of demand (read+write) MSHR misses (Count)
system.cpu.icache.overallMshrMisses::cpu.inst            2                       # number of overall MSHR misses (Count)
system.cpu.icache.overallMshrMisses::total            2                       # number of overall MSHR misses (Count)
system.cpu.icache.demandMshrMissLatency::cpu.inst       226000                       # number of demand (read+write) MSHR miss ticks (Tick)
system.cpu.icache.demandMshrMissLatency::total       226000                       # number of demand (read+write) MSHR miss ticks (Tick)
system.cpu.icache.overallMshrMissLatency::cpu.inst       226000                       # number of overall MSHR miss ticks (Tick)
system.cpu.icache.overallMshrMissLatency::total       226000                       # number of overall MSHR miss ticks (Tick)
system.cpu.icache.demandMshrMissRate::cpu.inst     0.000000                       # mshr miss ratio for demand accesses (Ratio)
system.cpu.icache.demandMshrMissRate::total     0.000000                       # mshr miss ratio for demand accesses (Ratio)
system.cpu.icache.overallMshrMissRate::cpu.inst     0.000000                       # mshr miss ratio for overall accesses (Ratio)
system.cpu.icache.overallMshrMissRate::total     0.000000                       # mshr miss ratio for overall accesses (Ratio)
system.cpu.icache.demandAvgMshrMissLatency::cpu.inst       113000                       # average overall mshr miss latency ((Tick/Count))
system.cpu.icache.demandAvgMshrMissLatency::total       113000                       # average overall mshr miss latency ((Tick/Count))
system.cpu.icache.overallAvgMshrMissLatency::cpu.inst       113000                       # average overall mshr miss latency ((Tick/Count))
system.cpu.icache.overallAvgMshrMissLatency::total       113000                       # average overall mshr miss latency ((Tick/Count))
system.cpu.icache.replacements                      2                       # number of replacements (Count)
system.cpu.icache.ReadReq.hits::cpu.inst      5079175                       # number of ReadReq hits (Count)
system.cpu.icache.ReadReq.hits::total         5079175                       # number of ReadReq hits (Count)
system.cpu.icache.ReadReq.misses::cpu.inst            2                       # number of ReadReq misses (Count)
system.cpu.icache.ReadReq.misses::total             2                       # number of ReadReq misses (Count)
system.cpu.icache.ReadReq.missLatency::cpu.inst       230000                       # number of ReadReq miss ticks (Tick)
system.cpu.icache.ReadReq.missLatency::total       230000                       # number of ReadReq miss ticks (Tick)
system.cpu.icache.ReadReq.accesses::cpu.inst      5079177                       # number of ReadReq accesses(hits+misses) (Count)
system.cpu.icache.ReadReq.accesses::total      5079177                       # number of ReadReq accesses(hits+misses) (Count)
system.cpu.icache.ReadReq.missRate::cpu.inst     0.000000                       # miss rate for ReadReq accesses (Ratio)
system.cpu.icache.ReadReq.missRate::total     0.000000                       # miss rate for ReadReq accesses (Ratio)
system.cpu.icache.ReadReq.avgMissLatency::cpu.inst       115000                       # average ReadReq miss latency ((Tick/Count))
system.cpu.icache.ReadReq.avgMissLatency::total       115000                       # average ReadReq miss latency ((Tick/Count))
system.cpu.icache.ReadReq.mshrMisses::cpu.inst            2                       # number of ReadReq MSHR misses (Count)
system.cpu.icache.ReadReq.mshrMisses::total            2                       # number of ReadReq MSHR misses (Count)
system.cpu.icache.ReadReq.mshrMissLatency::cpu.inst       226000                       # number of ReadReq MSHR miss ticks (Tick)
system.cpu.icache.ReadReq.mshrMissLatency::total       226000                       # number of ReadReq MSHR miss ticks (Tick)
system.cpu.icache.ReadReq.mshrMissRate::cpu.inst     0.000000                       # mshr miss rate for ReadReq accesses (Ratio)
system.cpu.icache.ReadReq.mshrMissRate::total     0.000000                       # mshr miss rate for ReadReq accesses (Ratio)
system.cpu.icache.ReadReq.avgMshrMissLatency::cpu.inst       113000                       # average ReadReq mshr miss latency ((Tick/Count))
system.cpu.icache.ReadReq.avgMshrMissLatency::total       113000                       # average ReadReq mshr miss latency ((Tick/Count))
system.cpu.icache.power_state.pwrStateResidencyTicks::UNDEFINED  11742786000                       # Cumulative time (in ticks) in various power states (Tick)
system.cpu.icache.tags.tagsInUse                  231                       # Average ticks per tags in use ((Tick/Count))
system.cpu.icache.tags.totalRefs                   13                       # Total number of references to valid blocks. (Count)
system.cpu.icache.tags.sampledRefs                  2                       # Sample count of references to valid blocks. (Count)
system.cpu.icache.tags.avgRefs               6.500000                       # Average number of references to valid blocks. ((Count/Count))
system.cpu.icache.tags.warmupTick                   0                       # The tick when the warmup percentage was hit. (Tick)
system.cpu.icache.tags.occupancies::cpu.inst          231                       # Average occupied blocks per tick, per requestor ((Count/Tick))
system.cpu.icache.tags.avgOccs::cpu.inst     0.902344                       # Average percentage of cache occupancy ((Ratio/Tick))
system.cpu.icache.tags.avgOccs::total        0.902344                       # Average percentage of cache occupancy ((Ratio/Tick))
system.cpu.icache.tags.occupanciesTaskId::1024          231                       # Occupied blocks per task id (Count)
system.cpu.icache.tags.ageTaskId_1024::0            1                       # Occupied blocks per task id, per block age (Count)
system.cpu.icache.tags.ageTaskId_1024::3            7                       # Occupied blocks per task id, per block age (Count)
system.cpu.icache.tags.ageTaskId_1024::4          223                       # Occupied blocks per task id, per block age (Count)
system.cpu.icache.tags.ratioOccsTaskId::1024     0.902344                       # Ratio of occupied blocks and all blocks, per task id (Ratio)
system.cpu.icache.tags.tagAccesses           10158356                       # Number of tag accesses (Count)
system.cpu.icache.tags.dataAccesses          10158356                       # Number of data accesses (Count)
system.cpu.icache.tags.power_state.pwrStateResidencyTicks::UNDEFINED  11742786000                       # Cumulative time (in ticks) in various power states (Tick)
system.cpu.interrupts.clk_domain.clock          16000                       # Clock period in ticks (Tick)
system.cpu.mmu.dtb.rdAccesses                 1802282                       # TLB accesses on read requests (Count)
system.cpu.mmu.dtb.wrAccesses                  327716                       # TLB accesses on write requests (Count)
system.cpu.mmu.dtb.rdMisses                         0                       # TLB misses on read requests (Count)
system.cpu.mmu.dtb.wrMisses                        30                       # TLB misses on write requests (Count)
system.cpu.mmu.dtb.walker.power_state.pwrStateResidencyTicks::UNDEFINED  11742786000                       # Cumulative time (in ticks) in various power states (Tick)
system.cpu.mmu.itb.rdAccesses                       0                       # TLB accesses on read requests (Count)
system.cpu.mmu.itb.wrAccesses                 5079177                       # TLB accesses on write requests (Count)
system.cpu.mmu.itb.rdMisses                         0                       # TLB misses on read requests (Count)
system.cpu.mmu.itb.wrMisses                         0                       # TLB misses on write requests (Count)
system.cpu.mmu.itb.walker.power_state.pwrStateResidencyTicks::UNDEFINED  11742786000                       # Cumulative time (in ticks) in various power states (Tick)
system.cpu.power_state.pwrStateResidencyTicks::ON  11742786000                       # Cumulative time (in ticks) in various power states (Tick)
system.cpu.thread_0.numInsts                        0                       # Number of Instructions committed (Count)
system.cpu.thread_0.numOps                          0                       # Number of Ops committed (Count)
system.cpu.thread_0.numMemRefs                      0                       # Number of Memory References (Count)
system.cpu.workload.numSyscalls                     0                       # Number of system calls (Count)
system.l2bus.transDist::ReadResp                20493                       # Transaction distribution (Count)
system.l2bus.transDist::WritebackDirty          30732                       # Transaction distribution (Count)
system.l2bus.transDist::CleanEvict                 47                       # Transaction distribution (Count)
system.l2bus.transDist::ReadExReq               10241                       # Transaction distribution (Count)
system.l2bus.transDist::ReadExResp              10241                       # Transaction distribution (Count)
system.l2bus.transDist::ReadSharedReq           20493                       # Transaction distribution (Count)
system.l2bus.pktCount_system.cpu.icache.mem_side_port::system.l2cache.cpu_side_port            6                       # Packet count per connected requestor and responder (Count)
system.l2bus.pktCount_system.cpu.dcache.mem_side_port::system.l2cache.cpu_side_port        92196                       # Packet count per connected requestor and responder (Count)
system.l2bus.pktCount::total                    92202                       # Packet count per connected requestor and responder (Count)
system.l2bus.pktSize_system.cpu.icache.mem_side_port::system.l2cache.cpu_side_port          128                       # Cumulative packet size per connected requestor and responder (Byte)
system.l2bus.pktSize_system.cpu.dcache.mem_side_port::system.l2cache.cpu_side_port      3933696                       # Cumulative packet size per connected requestor and responder (Byte)
system.l2bus.pktSize::total                   3933824                       # Cumulative packet size per connected requestor and responder (Byte)
system.l2bus.snoops                                45                       # Total snoops (Count)
system.l2bus.snoopTraffic                           0                       # Total snoop traffic (Byte)
system.l2bus.snoopFanout::samples               30779                       # Request fanout histogram (Count)
system.l2bus.snoopFanout::mean               0.001072                       # Request fanout histogram (Count)
system.l2bus.snoopFanout::stdev              0.032727                       # Request fanout histogram (Count)
system.l2bus.snoopFanout::underflows                0      0.00%      0.00% # Request fanout histogram (Count)
system.l2bus.snoopFanout::0                     30746     99.89%     99.89% # Request fanout histogram (Count)
system.l2bus.snoopFanout::1                        33      0.11%    100.00% # Request fanout histogram (Count)
system.l2bus.snoopFanout::2                         0      0.00%    100.00% # Request fanout histogram (Count)
system.l2bus.snoopFanout::overflows                 0      0.00%    100.00% # Request fanout histogram (Count)
system.l2bus.snoopFanout::min_value                 0                       # Request fanout histogram (Count)
system.l2bus.snoopFanout::max_value                 1                       # Request fanout histogram (Count)
system.l2bus.snoopFanout::total                 30779                       # Request fanout histogram (Count)
system.l2bus.power_state.pwrStateResidencyTicks::UNDEFINED  11742786000                       # Cumulative time (in ticks) in various power states (Tick)
system.l2bus.reqLayer0.occupancy            122932000                       # Layer occupancy (ticks) (Tick)
system.l2bus.reqLayer0.utilization                0.0                       # Layer utilization (Ratio)
system.l2bus.respLayer0.occupancy                6000                       # Layer occupancy (ticks) (Tick)
system.l2bus.respLayer0.utilization               0.0                       # Layer utilization (Ratio)
system.l2bus.respLayer1.occupancy            92196000                       # Layer occupancy (ticks) (Tick)
system.l2bus.respLayer1.utilization               0.0                       # Layer utilization (Ratio)
system.l2bus.snoop_filter.totRequests           61468                       # Total number of requests made to the snoop filter. (Count)
system.l2bus.snoop_filter.hitSingleRequests        30734                       # Number of requests hitting in the snoop filter with a single holder of the requested data. (Count)
system.l2bus.snoop_filter.hitMultiRequests            0                       # Number of requests hitting in the snoop filter with multiple (>1) holders of the requested data. (Count)
system.l2bus.snoop_filter.totSnoops                33                       # Total number of snoops made to the snoop filter. (Count)
system.l2bus.snoop_filter.hitSingleSnoops           33                       # Number of snoops hitting in the snoop filter with a single holder of the requested data. (Count)
system.l2bus.snoop_filter.hitMultiSnoops            0                       # Number of snoops hitting in the snoop filter with multiple (>1) holders of the requested data. (Count)
system.l2cache.demandHits::cpu.data             29708                       # number of demand (read+write) hits (Count)
system.l2cache.demandHits::total                29708                       # number of demand (read+write) hits (Count)
system.l2cache.overallHits::cpu.data            29708                       # number of overall hits (Count)
system.l2cache.overallHits::total               29708                       # number of overall hits (Count)
system.l2cache.demandMisses::cpu.inst               2                       # number of demand (read+write) misses (Count)
system.l2cache.demandMisses::cpu.data            1024                       # number of demand (read+write) misses (Count)
system.l2cache.demandMisses::total               1026                       # number of demand (read+write) misses (Count)
system.l2cache.overallMisses::cpu.inst              2                       # number of overall misses (Count)
system.l2cache.overallMisses::cpu.data           1024                       # number of overall misses (Count)
system.l2cache.overallMisses::total              1026                       # number of overall misses (Count)
system.l2cache.demandMissLatency::cpu.inst       222000                       # number of demand (read+write) miss ticks (Tick)
system.l2cache.demandMissLatency::cpu.data    109994000                       # number of demand (read+write) miss ticks (Tick)
system.l2cache.demandMissLatency::total     110216000                       # number of demand (read+write) miss ticks (Tick)
system.l2cache.overallMissLatency::cpu.inst       222000                       # number of overall miss ticks (Tick)
system.l2cache.overallMissLatency::cpu.data    109994000                       # number of overall miss ticks (Tick)
system.l2cache.overallMissLatency::total    110216000                       # number of overall miss ticks (Tick)
system.l2cache.demandAccesses::cpu.inst             2                       # number of demand (read+write) accesses (Count)
system.l2cache.demandAccesses::cpu.data         30732                       # number of demand (read+write) accesses (Count)
system.l2cache.demandAccesses::total            30734                       # number of demand (read+write) accesses (Count)
system.l2cache.overallAccesses::cpu.inst            2                       # number of overall (read+write) accesses (Count)
system.l2cache.overallAccesses::cpu.data        30732                       # number of overall (read+write) accesses (Count)
system.l2cache.overallAccesses::total           30734                       # number of overall (read+write) accesses (Count)
system.l2cache.demandMissRate::cpu.inst             1                       # miss rate for demand accesses (Ratio)
system.l2cache.demandMissRate::cpu.data      0.033320                       # miss rate for demand accesses (Ratio)
system.l2cache.demandMissRate::total         0.033383                       # miss rate for demand accesses (Ratio)
system.l2cache.overallMissRate::cpu.inst            1                       # miss rate for overall accesses (Ratio)
system.l2cache.overallMissRate::cpu.data     0.033320                       # miss rate for overall accesses (Ratio)
system.l2cache.overallMissRate::total        0.033383                       # miss rate for overall accesses (Ratio)
system.l2cache.demandAvgMissLatency::cpu.inst       111000                       # average overall miss latency in ticks ((Tick/Count))
system.l2cache.demandAvgMissLatency::cpu.data 107416.015625                       # average overall miss latency in ticks ((Tick/Count))
system.l2cache.demandAvgMissLatency::total 107423.001949                       # average overall miss latency in ticks ((Tick/Count))
system.l2cache.overallAvgMissLatency::cpu.inst       111000                       # average overall miss latency ((Tick/Count))
system.l2cache.overallAvgMissLatency::cpu.data 107416.015625                       # average overall miss latency ((Tick/Count))
system.l2cache.overallAvgMissLatency::total 107423.001949                       # average overall miss latency ((Tick/Count))
system.l2cache.blockedCycles::no_mshrs              0                       # number of cycles access was blocked (Cycle)
system.l2cache.blockedCycles::no_targets            0                       # number of cycles access was blocked (Cycle)
system.l2cache.blockedCauses::no_mshrs              0                       # number of times access was blocked (Count)
system.l2cache.blockedCauses::no_targets            0                       # number of times access was blocked (Count)
system.l2cache.avgBlocked::no_mshrs               nan                       # average number of cycles each access was blocked ((Cycle/Count))
system.l2cache.avgBlocked::no_targets             nan                       # average number of cycles each access was blocked ((Cycle/Count))
system.l2cache.demandMshrMisses::cpu.inst            2                       # number of demand (read+write) MSHR misses (Count)
system.l2cache.demandMshrMisses::cpu.data         1024                       # number of demand (read+write) MSHR misses (Count)
system.l2cache.demandMshrMisses::total           1026                       # number of demand (read+write) MSHR misses (Count)
system.l2cache.overallMshrMisses::cpu.inst            2                       # number of overall MSHR misses (Count)
system.l2cache.overallMshrMisses::cpu.data         1024                       # number of overall MSHR misses (Count)
system.l2cache.overallMshrMisses::total          1026                       # number of overall MSHR misses (Count)
system.l2cache.demandMshrMissLatency::cpu.inst       182000                       # number of demand (read+write) MSHR miss ticks (Tick)
system.l2cache.demandMshrMissLatency::cpu.data     89514000                       # number of demand (read+write) MSHR miss ticks (Tick)
system.l2cache.demandMshrMissLatency::total     89696000                       # number of demand (read+write) MSHR miss ticks (Tick)
system.l2cache.overallMshrMissLatency::cpu.inst       182000                       # number of overall MSHR miss ticks (Tick)
system.l2cache.overallMshrMissLatency::cpu.data     89514000                       # number of overall MSHR miss ticks (Tick)
system.l2cache.overallMshrMissLatency::total     89696000                       # number of overall MSHR miss ticks (Tick)
system.l2cache.demandMshrMissRate::cpu.inst            1                       # mshr miss ratio for demand accesses (Ratio)
system.l2cache.demandMshrMissRate::cpu.data     0.033320                       # mshr miss ratio for demand accesses (Ratio)
system.l2cache.demandMshrMissRate::total     0.033383                       # mshr miss ratio for demand accesses (Ratio)
system.l2cache.overallMshrMissRate::cpu.inst            1                       # mshr miss ratio for overall accesses (Ratio)
system.l2cache.overallMshrMissRate::cpu.data     0.033320                       # mshr miss ratio for overall accesses (Ratio)
system.l2cache.overallMshrMissRate::total     0.033383                       # mshr miss ratio for overall accesses (Ratio)
system.l2cache.demandAvgMshrMissLatency::cpu.inst        91000                       # average overall mshr miss latency ((Tick/Count))
system.l2cache.demandAvgMshrMissLatency::cpu.data 87416.015625                       # average overall mshr miss latency ((Tick/Count))
system.l2cache.demandAvgMshrMissLatency::total 87423.001949                       # average overall mshr miss latency ((Tick/Count))
system.l2cache.overallAvgMshrMissLatency::cpu.inst        91000                       # average overall mshr miss latency ((Tick/Count))
system.l2cache.overallAvgMshrMissLatency::cpu.data 87416.015625                       # average overall mshr miss latency ((Tick/Count))
system.l2cache.overallAvgMshrMissLatency::total 87423.001949                       # average overall mshr miss latency ((Tick/Count))
system.l2cache.replacements                        45                       # number of replacements (Count)
system.l2cache.ReadExReq.hits::cpu.data          9217                       # number of ReadExReq hits (Count)
system.l2cache.ReadExReq.hits::total             9217                       # number of ReadExReq hits (Count)
system.l2cache.ReadExReq.misses::cpu.data         1024                       # number of ReadExReq misses (Count)
system.l2cache.ReadExReq.misses::total           1024                       # number of ReadExReq misses (Count)
system.l2cache.ReadExReq.missLatency::cpu.data    109994000                       # number of ReadExReq miss ticks (Tick)
system.l2cache.ReadExReq.missLatency::total    109994000                       # number of ReadExReq miss ticks (Tick)
system.l2cache.ReadExReq.accesses::cpu.data        10241                       # number of ReadExReq accesses(hits+misses) (Count)
system.l2cache.ReadExReq.accesses::total        10241                       # number of ReadExReq accesses(hits+misses) (Count)
system.l2cache.ReadExReq.missRate::cpu.data     0.099990                       # miss rate for ReadExReq accesses (Ratio)
system.l2cache.ReadExReq.missRate::total     0.099990                       # miss rate for ReadExReq accesses (Ratio)
system.l2cache.ReadExReq.avgMissLatency::cpu.data 107416.015625                       # average ReadExReq miss latency ((Tick/Count))
system.l2cache.ReadExReq.avgMissLatency::total 107416.015625                       # average ReadExReq miss latency ((Tick/Count))
system.l2cache.ReadExReq.mshrMisses::cpu.data         1024                       # number of ReadExReq MSHR misses (Count)
system.l2cache.ReadExReq.mshrMisses::total         1024                       # number of ReadExReq MSHR misses (Count)
system.l2cache.ReadExReq.mshrMissLatency::cpu.data     89514000                       # number of ReadExReq MSHR miss ticks (Tick)
system.l2cache.ReadExReq.mshrMissLatency::total     89514000                       # number of ReadExReq MSHR miss ticks (Tick)
system.l2cache.ReadExReq.mshrMissRate::cpu.data     0.099990                       # mshr miss rate for ReadExReq accesses (Ratio)
system.l2cache.ReadExReq.mshrMissRate::total     0.099990                       # mshr miss rate for ReadExReq accesses (Ratio)
system.l2cache.ReadExReq.avgMshrMissLatency::cpu.data 87416.015625                       # average ReadExReq mshr miss latency ((Tick/Count))
system.l2cache.ReadExReq.avgMshrMissLatency::total 87416.015625                       # average ReadExReq mshr miss latency ((Tick/Count))
system.l2cache.ReadSharedReq.hits::cpu.data        20491                       # number of ReadSharedReq hits (Count)
system.l2cache.ReadSharedReq.hits::total        20491                       # number of ReadSharedReq hits (Count)
system.l2cache.ReadSharedReq.misses::cpu.inst            2                       # number of ReadSharedReq misses (Count)
system.l2cache.ReadSharedReq.misses::total            2                       # number of ReadSharedReq misses (Count)
system.l2cache.ReadSharedReq.missLatency::cpu.inst       222000                       # number of ReadSharedReq miss ticks (Tick)
system.l2cache.ReadSharedReq.missLatency::total       222000                       # number of ReadSharedReq miss ticks (Tick)
system.l2cache.ReadSharedReq.accesses::cpu.inst            2                       # number of ReadSharedReq accesses(hits+misses) (Count)
system.l2cache.ReadSharedReq.accesses::cpu.data        20491                       # number of ReadSharedReq accesses(hits+misses) (Count)
system.l2cache.ReadSharedReq.accesses::total        20493                       # number of ReadSharedReq accesses(hits+misses) (Count)
system.l2cache.ReadSharedReq.missRate::cpu.inst            1                       # miss rate for ReadSharedReq accesses (Ratio)
system.l2cache.ReadSharedReq.missRate::total     0.000098                       # miss rate for ReadSharedReq accesses (Ratio)
system.l2cache.ReadSharedReq.avgMissLatency::cpu.inst       111000                       # average ReadSharedReq miss latency ((Tick/Count))
system.l2cache.ReadSharedReq.avgMissLatency::total       111000                       # average ReadSharedReq miss latency ((Tick/Count))
system.l2cache.ReadSharedReq.mshrMisses::cpu.inst            2                       # number of ReadSharedReq MSHR misses (Count)
system.l2cache.ReadSharedReq.mshrMisses::total            2                       # number of ReadSharedReq MSHR misses (Count)
system.l2cache.ReadSharedReq.mshrMissLatency::cpu.inst       182000                       # number of ReadSharedReq MSHR miss ticks (Tick)
system.l2cache.ReadSharedReq.mshrMissLatency::total       182000                       # number of ReadSharedReq MSHR miss ticks (Tick)
system.l2cache.ReadSharedReq.mshrMissRate::cpu.inst            1                       # mshr miss rate for ReadSharedReq accesses (Ratio)
system.l2cache.ReadSharedReq.mshrMissRate::total     0.000098                       # mshr miss rate for ReadSharedReq accesses (Ratio)
system.l2cache.ReadSharedReq.avgMshrMissLatency::cpu.inst        91000                       # average ReadSharedReq mshr miss latency ((Tick/Count))
system.l2cache.ReadSharedReq.avgMshrMissLatency::total        91000                       # average ReadSharedReq mshr miss latency ((Tick/Count))
system.l2cache.WritebackDirty.hits::writebacks        30732                       # number of WritebackDirty hits (Count)
system.l2cache.WritebackDirty.hits::total        30732                       # number of WritebackDirty hits (Count)
system.l2cache.WritebackDirty.accesses::writebacks        30732                       # number of WritebackDirty accesses(hits+misses) (Count)
system.l2cache.WritebackDirty.accesses::total        30732                       # number of WritebackDirty accesses(hits+misses) (Count)
system.l2cache.power_state.pwrStateResidencyTicks::UNDEFINED  11742786000                       # Cumulative time (in ticks) in various power states (Tick)
system.l2cache.tags.tagsInUse             3503.147011                       # Average ticks per tags in use ((Tick/Count))
system.l2cache.tags.totalRefs                      63                       # Total number of references to valid blocks. (Count)
system.l2cache.tags.sampledRefs                    45                       # Sample count of references to valid blocks. (Count)
system.l2cache.tags.avgRefs                  1.400000                       # Average number of references to valid blocks. ((Count/Count))
system.l2cache.tags.warmupTick                      0                       # The tick when the warmup percentage was hit. (Tick)
system.l2cache.tags.occupancies::cpu.inst   308.485890                       # Average occupied blocks per tick, per requestor ((Count/Tick))
system.l2cache.tags.occupancies::cpu.data  3194.661121                       # Average occupied blocks per tick, per requestor ((Count/Tick))
system.l2cache.tags.avgOccs::cpu.inst        0.075314                       # Average percentage of cache occupancy ((Ratio/Tick))
system.l2cache.tags.avgOccs::cpu.data        0.779947                       # Average percentage of cache occupancy ((Ratio/Tick))
system.l2cache.tags.avgOccs::total           0.855261                       # Average percentage of cache occupancy ((Ratio/Tick))
system.l2cache.tags.occupanciesTaskId::1024         3558                       # Occupied blocks per task id (Count)
system.l2cache.tags.ageTaskId_1024::0               1                       # Occupied blocks per task id, per block age (Count)
system.l2cache.tags.ageTaskId_1024::3            2236                       # Occupied blocks per task id, per block age (Count)
system.l2cache.tags.ageTaskId_1024::4            1321                       # Occupied blocks per task id, per block age (Count)
system.l2cache.tags.ratioOccsTaskId::1024     0.868652                       # Ratio of occupied blocks and all blocks, per task id (Ratio)
system.l2cache.tags.tagAccesses                492770                       # Number of tag accesses (Count)
system.l2cache.tags.dataAccesses               492770                       # Number of data accesses (Count)
system.l2cache.tags.power_state.pwrStateResidencyTicks::UNDEFINED  11742786000                       # Cumulative time (in ticks) in various power states (Tick)
system.l3bus.transDist::ReadResp                    2                       # Transaction distribution (Count)
system.l3bus.transDist::CleanEvict                 12                       # Transaction distribution (Count)
system.l3bus.transDist::ReadExReq                1024                       # Transaction distribution (Count)
system.l3bus.transDist::ReadExResp               1024                       # Transaction distribution (Count)
system.l3bus.transDist::ReadSharedReq               2                       # Transaction distribution (Count)
system.l3bus.pktCount_system.l2cache.mem_side_port::system.l3cache.cpu_side_port         2064                       # Packet count per connected requestor and responder (Count)
system.l3bus.pktSize_system.l2cache.mem_side_port::system.l3cache.cpu_side_port        65664                       # Cumulative packet size per connected requestor and responder (Byte)
system.l3bus.snoops                                 0                       # Total snoops (Count)
system.l3bus.snoopTraffic                           0                       # Total snoop traffic (Byte)
system.l3bus.snoopFanout::samples                1026                       # Request fanout histogram (Count)
system.l3bus.snoopFanout::mean                      0                       # Request fanout histogram (Count)
system.l3bus.snoopFanout::stdev                     0                       # Request fanout histogram (Count)
system.l3bus.snoopFanout::underflows                0      0.00%      0.00% # Request fanout histogram (Count)
system.l3bus.snoopFanout::0                      1026    100.00%    100.00% # Request fanout histogram (Count)
system.l3bus.snoopFanout::1                         0      0.00%    100.00% # Request fanout histogram (Count)
system.l3bus.snoopFanout::overflows                 0      0.00%    100.00% # Request fanout histogram (Count)
system.l3bus.snoopFanout::min_value                 0                       # Request fanout histogram (Count)
system.l3bus.snoopFanout::max_value                 0                       # Request fanout histogram (Count)
system.l3bus.snoopFanout::total                  1026                       # Request fanout histogram (Count)
system.l3bus.power_state.pwrStateResidencyTicks::UNDEFINED  11742786000                       # Cumulative time (in ticks) in various power states (Tick)
system.l3bus.reqLayer0.occupancy              1038000                       # Layer occupancy (ticks) (Tick)
system.l3bus.reqLayer0.utilization                0.0                       # Layer utilization (Ratio)
system.l3bus.respLayer0.occupancy             3078000                       # Layer occupancy (ticks) (Tick)
system.l3bus.respLayer0.utilization               0.0                       # Layer utilization (Ratio)
system.l3bus.snoop_filter.totRequests            1038                       # Total number of requests made to the snoop filter. (Count)
system.l3bus.snoop_filter.hitSingleRequests           12                       # Number of requests hitting in the snoop filter with a single holder of the requested data. (Count)
system.l3bus.snoop_filter.hitMultiRequests            0                       # Number of requests hitting in the snoop filter with multiple (>1) holders of the requested data. (Count)
system.l3bus.snoop_filter.totSnoops                 0                       # Total number of snoops made to the snoop filter. (Count)
system.l3bus.snoop_filter.hitSingleSnoops            0                       # Number of snoops hitting in the snoop filter with a single holder of the requested data. (Count)
system.l3bus.snoop_filter.hitMultiSnoops            0                       # Number of snoops hitting in the snoop filter with multiple (>1) holders of the requested data. (Count)
system.l3cache.demandMisses::cpu.inst               2                       # number of demand (read+write) misses (Count)
system.l3cache.demandMisses::cpu.data            1024                       # number of demand (read+write) misses (Count)
system.l3cache.demandMisses::total               1026                       # number of demand (read+write) misses (Count)
system.l3cache.overallMisses::cpu.inst              2                       # number of overall misses (Count)
system.l3cache.overallMisses::cpu.data           1024                       # number of overall misses (Count)
system.l3cache.overallMisses::total              1026                       # number of overall misses (Count)
system.l3cache.demandMissLatency::cpu.inst       174000                       # number of demand (read+write) miss ticks (Tick)
system.l3cache.demandMissLatency::cpu.data     85418000                       # number of demand (read+write) miss ticks (Tick)
system.l3cache.demandMissLatency::total      85592000                       # number of demand (read+write) miss ticks (Tick)
system.l3cache.overallMissLatency::cpu.inst       174000                       # number of overall miss ticks (Tick)
system.l3cache.overallMissLatency::cpu.data     85418000                       # number of overall miss ticks (Tick)
system.l3cache.overallMissLatency::total     85592000                       # number of overall miss ticks (Tick)
system.l3cache.demandAccesses::cpu.inst             2                       # number of demand (read+write) accesses (Count)
system.l3cache.demandAccesses::cpu.data          1024                       # number of demand (read+write) accesses (Count)
system.l3cache.demandAccesses::total             1026                       # number of demand (read+write) accesses (Count)
system.l3cache.overallAccesses::cpu.inst            2                       # number of overall (read+write) accesses (Count)
system.l3cache.overallAccesses::cpu.data         1024                       # number of overall (read+write) accesses (Count)
system.l3cache.overallAccesses::total            1026                       # number of overall (read+write) accesses (Count)
system.l3cache.demandMissRate::cpu.inst             1                       # miss rate for demand accesses (Ratio)
system.l3cache.demandMissRate::cpu.data             1                       # miss rate for demand accesses (Ratio)
system.l3cache.demandMissRate::total                1                       # miss rate for demand accesses (Ratio)
system.l3cache.overallMissRate::cpu.inst            1                       # miss rate for overall accesses (Ratio)
system.l3cache.overallMissRate::cpu.data            1                       # miss rate for overall accesses (Ratio)
system.l3cache.overallMissRate::total               1                       # miss rate for overall accesses (Ratio)
system.l3cache.demandAvgMissLatency::cpu.inst        87000                       # average overall miss latency in ticks ((Tick/Count))
system.l3cache.demandAvgMissLatency::cpu.data 83416.015625                       # average overall miss latency in ticks ((Tick/Count))
system.l3cache.demandAvgMissLatency::total 83423.001949                       # average overall miss latency in ticks ((Tick/Count))
system.l3cache.overallAvgMissLatency::cpu.inst        87000                       # average overall miss latency ((Tick/Count))
system.l3cache.overallAvgMissLatency::cpu.data 83416.015625                       # average overall miss latency ((Tick/Count))
system.l3cache.overallAvgMissLatency::total 83423.001949                       # average overall miss latency ((Tick/Count))
system.l3cache.blockedCycles::no_mshrs              0                       # number of cycles access was blocked (Cycle)
system.l3cache.blockedCycles::no_targets            0                       # number of cycles access was blocked (Cycle)
system.l3cache.blockedCauses::no_mshrs              0                       # number of times access was blocked (Count)
system.l3cache.blockedCauses::no_targets            0                       # number of times access was blocked (Count)
system.l3cache.avgBlocked::no_mshrs               nan                       # average number of cycles each access was blocked ((Cycle/Count))
system.l3cache.avgBlocked::no_targets             nan                       # average number of cycles each access was blocked ((Cycle/Count))
system.l3cache.demandMshrMisses::cpu.inst            2                       # number of demand (read+write) MSHR misses (Count)
system.l3cache.demandMshrMisses::cpu.data         1024                       # number of demand (read+write) MSHR misses (Count)
system.l3cache.demandMshrMisses::total           1026                       # number of demand (read+write) MSHR misses (Count)
system.l3cache.overallMshrMisses::cpu.inst            2                       # number of overall MSHR misses (Count)
system.l3cache.overallMshrMisses::cpu.data         1024                       # number of overall MSHR misses (Count)
system.l3cache.overallMshrMisses::total          1026                       # number of overall MSHR misses (Count)
system.l3cache.demandMshrMissLatency::cpu.inst       134000                       # number of demand (read+write) MSHR miss ticks (Tick)
system.l3cache.demandMshrMissLatency::cpu.data     64938000                       # number of demand (read+write) MSHR miss ticks (Tick)
system.l3cache.demandMshrMissLatency::total     65072000                       # number of demand (read+write) MSHR miss ticks (Tick)
system.l3cache.overallMshrMissLatency::cpu.inst       134000                       # number of overall MSHR miss ticks (Tick)
system.l3cache.overallMshrMissLatency::cpu.data     64938000                       # number of overall MSHR miss ticks (Tick)
system.l3cache.overallMshrMissLatency::total     65072000                       # number of overall MSHR miss ticks (Tick)
system.l3cache.demandMshrMissRate::cpu.inst            1                       # mshr miss ratio for demand accesses (Ratio)
system.l3cache.demandMshrMissRate::cpu.data            1                       # mshr miss ratio for demand accesses (Ratio)
system.l3cache.demandMshrMissRate::total            1                       # mshr miss ratio for demand accesses (Ratio)
system.l3cache.overallMshrMissRate::cpu.inst            1                       # mshr miss ratio for overall accesses (Ratio)
system.l3cache.overallMshrMissRate::cpu.data            1                       # mshr miss ratio for overall accesses (Ratio)
system.l3cache.overallMshrMissRate::total            1                       # mshr miss ratio for overall accesses (Ratio)
system.l3cache.demandAvgMshrMissLatency::cpu.inst        67000                       # average overall mshr miss latency ((Tick/Count))
system.l3cache.demandAvgMshrMissLatency::cpu.data 63416.015625                       # average overall mshr miss latency ((Tick/Count))
system.l3cache.demandAvgMshrMissLatency::total 63423.001949                       # average overall mshr miss latency ((Tick/Count))
system.l3cache.overallAvgMshrMissLatency::cpu.inst        67000                       # average overall mshr miss latency ((Tick/Count))
system.l3cache.overallAvgMshrMissLatency::cpu.data 63416.015625                       # average overall mshr miss latency ((Tick/Count))
system.l3cache.overallAvgMshrMissLatency::total 63423.001949                       # average overall mshr miss latency ((Tick/Count))
system.l3cache.replacements                         0                       # number of replacements (Count)
system.l3cache.ReadExReq.misses::cpu.data         1024                       # number of ReadExReq misses (Count)
system.l3cache.ReadExReq.misses::total           1024                       # number of ReadExReq misses (Count)
system.l3cache.ReadExReq.missLatency::cpu.data     85418000                       # number of ReadExReq miss ticks (Tick)
system.l3cache.ReadExReq.missLatency::total     85418000                       # number of ReadExReq miss ticks (Tick)
system.l3cache.ReadExReq.accesses::cpu.data         1024                       # number of ReadExReq accesses(hits+misses) (Count)
system.l3cache.ReadExReq.accesses::total         1024                       # number of ReadExReq accesses(hits+misses) (Count)
system.l3cache.ReadExReq.missRate::cpu.data            1                       # miss rate for ReadExReq accesses (Ratio)
system.l3cache.ReadExReq.missRate::total            1                       # miss rate for ReadExReq accesses (Ratio)
system.l3cache.ReadExReq.avgMissLatency::cpu.data 83416.015625                       # average ReadExReq miss latency ((Tick/Count))
system.l3cache.ReadExReq.avgMissLatency::total 83416.015625                       # average ReadExReq miss latency ((Tick/Count))
system.l3cache.ReadExReq.mshrMisses::cpu.data         1024                       # number of ReadExReq MSHR misses (Count)
system.l3cache.ReadExReq.mshrMisses::total         1024                       # number of ReadExReq MSHR misses (Count)
system.l3cache.ReadExReq.mshrMissLatency::cpu.data     64938000                       # number of ReadExReq MSHR miss ticks (Tick)
system.l3cache.ReadExReq.mshrMissLatency::total     64938000                       # number of ReadExReq MSHR miss ticks (Tick)
system.l3cache.ReadExReq.mshrMissRate::cpu.data            1                       # mshr miss rate for ReadExReq accesses (Ratio)
system.l3cache.ReadExReq.mshrMissRate::total            1                       # mshr miss rate for ReadExReq accesses (Ratio)
system.l3cache.ReadExReq.avgMshrMissLatency::cpu.data 63416.015625                       # average ReadExReq mshr miss latency ((Tick/Count))
system.l3cache.ReadExReq.avgMshrMissLatency::total 63416.015625                       # average ReadExReq mshr miss latency ((Tick/Count))
system.l3cache.ReadSharedReq.misses::cpu.inst            2                       # number of ReadSharedReq misses (Count)
system.l3cache.ReadSharedReq.misses::total            2                       # number of ReadSharedReq misses (Count)
system.l3cache.ReadSharedReq.missLatency::cpu.inst       174000                       # number of ReadSharedReq miss ticks (Tick)
system.l3cache.ReadSharedReq.missLatency::total       174000                       # number of ReadSharedReq miss ticks (Tick)
system.l3cache.ReadSharedReq.accesses::cpu.inst            2                       # number of ReadSharedReq accesses(hits+misses) (Count)
system.l3cache.ReadSharedReq.accesses::total            2                       # number of ReadSharedReq accesses(hits+misses) (Count)
system.l3cache.ReadSharedReq.missRate::cpu.inst            1                       # miss rate for ReadSharedReq accesses (Ratio)
system.l3cache.ReadSharedReq.missRate::total            1                       # miss rate for ReadSharedReq accesses (Ratio)
system.l3cache.ReadSharedReq.avgMissLatency::cpu.inst        87000                       # average ReadSharedReq miss latency ((Tick/Count))
system.l3cache.ReadSharedReq.avgMissLatency::total        87000                       # average ReadSharedReq miss latency ((Tick/Count))
system.l3cache.ReadSharedReq.mshrMisses::cpu.inst            2                       # number of ReadSharedReq MSHR misses (Count)
system.l3cache.ReadSharedReq.mshrMisses::total            2                       # number of ReadSharedReq MSHR misses (Count)
system.l3cache.ReadSharedReq.mshrMissLatency::cpu.inst       134000                       # number of ReadSharedReq MSHR miss ticks (Tick)
system.l3cache.ReadSharedReq.mshrMissLatency::total       134000                       # number of ReadSharedReq MSHR miss ticks (Tick)
system.l3cache.ReadSharedReq.mshrMissRate::cpu.inst            1                       # mshr miss rate for ReadSharedReq accesses (Ratio)
system.l3cache.ReadSharedReq.mshrMissRate::total            1                       # mshr miss rate for ReadSharedReq accesses (Ratio)
system.l3cache.ReadSharedReq.avgMshrMissLatency::cpu.inst        67000                       # average ReadSharedReq mshr miss latency ((Tick/Count))
system.l3cache.ReadSharedReq.avgMshrMissLatency::total        67000                       # average ReadSharedReq mshr miss latency ((Tick/Count))
system.l3cache.power_state.pwrStateResidencyTicks::UNDEFINED  11742786000                       # Cumulative time (in ticks) in various power states (Tick)
system.l3cache.tags.tagsInUse             3545.595286                       # Average ticks per tags in use ((Tick/Count))
system.l3cache.tags.totalRefs                       0                       # Total number of references to valid blocks. (Count)
system.l3cache.tags.sampledRefs                     0                       # Sample count of references to valid blocks. (Count)
system.l3cache.tags.avgRefs                       nan                       # Average number of references to valid blocks. ((Count/Count))
system.l3cache.tags.warmupTick                      0                       # The tick when the warmup percentage was hit. (Tick)
system.l3cache.tags.occupancies::cpu.inst   348.999999                       # Average occupied blocks per tick, per requestor ((Count/Tick))
system.l3cache.tags.occupancies::cpu.data  3196.595287                       # Average occupied blocks per tick, per requestor ((Count/Tick))
system.l3cache.tags.avgOccs::cpu.inst        0.005325                       # Average percentage of cache occupancy ((Ratio/Tick))
system.l3cache.tags.avgOccs::cpu.data        0.048776                       # Average percentage of cache occupancy ((Ratio/Tick))
system.l3cache.tags.avgOccs::total           0.054101                       # Average percentage of cache occupancy ((Ratio/Tick))
system.l3cache.tags.occupanciesTaskId::1024         3604                       # Occupied blocks per task id (Count)
system.l3cache.tags.ageTaskId_1024::0               1                       # Occupied blocks per task id, per block age (Count)
system.l3cache.tags.ageTaskId_1024::3            2236                       # Occupied blocks per task id, per block age (Count)
system.l3cache.tags.ageTaskId_1024::4            1367                       # Occupied blocks per task id, per block age (Count)
system.l3cache.tags.ratioOccsTaskId::1024     0.054993                       # Ratio of occupied blocks and all blocks, per task id (Ratio)
system.l3cache.tags.tagAccesses                  9330                       # Number of tag accesses (Count)
system.l3cache.tags.dataAccesses                 9330                       # Number of data accesses (Count)
system.l3cache.tags.power_state.pwrStateResidencyTicks::UNDEFINED  11742786000                       # Cumulative time (in ticks) in various power states (Tick)
system.mem_ctrl.avgPriority_cpu.inst::samples         2.00                       # Average QoS priority value for accepted requests (Count)
[...]
system.mem_ctrl.requestorReadTotalLat::cpu.data     24211500                       # Per-requestor read total memory access latency (Tick)
system.mem_ctrl.requestorReadAvgLat::cpu.inst     25910.00                       # Per-requestor read average memory access latency ((Tick/Count))
system.mem_ctrl.requestorReadAvgLat::cpu.data     22712.48                       # Per-requestor read average memory access latency ((Tick/Count))
system.mem_ctrl.dram.bytesRead::cpu.inst        12800                       # Number of bytes read from this memory (Byte)
system.mem_ctrl.dram.bytesRead::cpu.data        68224                       # Number of bytes read from this memory (Byte)
system.mem_ctrl.dram.bytesRead::total           81024                       # Number of bytes read from this memory (Byte)
system.mem_ctrl.dram.bytesInstRead::cpu.inst        12800                       # Number of instructions bytes read from this memory (Byte)
system.mem_ctrl.dram.bytesInstRead::total        12800                       # Number of instructions bytes read from this memory (Byte)
system.mem_ctrl.dram.numReads::cpu.inst           200                       # Number of read requests responded to by this memory (Count)
system.mem_ctrl.dram.numReads::cpu.data          1066                       # Number of read requests responded to by this memory (Count)
system.mem_ctrl.dram.numReads::total             1266                       # Number of read requests responded to by this memory (Count)
system.mem_ctrl.dram.bwRead::cpu.inst         1671168                       # Total read bandwidth from this memory ((Byte/Second))
system.mem_ctrl.dram.bwRead::cpu.data         8907327                       # Total read bandwidth from this memory ((Byte/Second))
system.mem_ctrl.dram.bwRead::total           10578496                       # Total read bandwidth from this memory ((Byte/Second))
system.mem_ctrl.dram.bwInstRead::cpu.inst      1671168                       # Instruction read bandwidth from this memory ((Byte/Second))
system.mem_ctrl.dram.bwInstRead::total        1671168                       # Instruction read bandwidth from this memory ((Byte/Second))
system.mem_ctrl.dram.bwTotal::cpu.inst        1671168                       # Total bandwidth to/from this memory ((Byte/Second))
system.mem_ctrl.dram.bwTotal::cpu.data        8907327                       # Total bandwidth to/from this memory ((Byte/Second))
system.mem_ctrl.dram.bwTotal::total          10578496                       # Total bandwidth to/from this memory ((Byte/Second))
system.mem_ctrl.dram.readBursts                  1266                       # Number of DRAM read bursts (Count)
system.mem_ctrl.dram.writeBursts                    0                       # Number of DRAM write bursts (Count)
system.mem_ctrl.dram.perBankRdBursts::0           137                       # Per bank write bursts (Count)
system.mem_ctrl.dram.perBankRdBursts::1           132                       # Per bank write bursts (Count)
system.mem_ctrl.dram.perBankRdBursts::2           134                       # Per bank write bursts (Count)
system.mem_ctrl.dram.perBankRdBursts::3            66                       # Per bank write bursts (Count)
system.mem_ctrl.dram.perBankRdBursts::4             0                       # Per bank write bursts (Count)
system.mem_ctrl.dram.perBankRdBursts::5             1                       # Per bank write bursts (Count)
system.mem_ctrl.dram.perBankRdBursts::6             7                       # Per bank write bursts (Count)
system.mem_ctrl.dram.perBankRdBursts::7             7                       # Per bank write bursts (Count)
system.mem_ctrl.dram.perBankRdBursts::8             3                       # Per bank write bursts (Count)
system.mem_ctrl.dram.perBankRdBursts::9            29                       # Per bank write bursts (Count)
system.mem_ctrl.dram.perBankRdBursts::10           22                       # Per bank write bursts (Count)
system.mem_ctrl.dram.perBankRdBursts::11           38                       # Per bank write bursts (Count)
system.mem_ctrl.dram.perBankRdBursts::12          218                       # Per bank write bursts (Count)
system.mem_ctrl.dram.perBankRdBursts::13          198                       # Per bank write bursts (Count)
system.mem_ctrl.dram.perBankRdBursts::14          144                       # Per bank write bursts (Count)
system.mem_ctrl.dram.perBankRdBursts::15          130                       # Per bank write bursts (Count)
system.mem_ctrl.dram.perBankWrBursts::0             0                       # Per bank write bursts (Count)
system.mem_ctrl.dram.perBankWrBursts::1             0                       # Per bank write bursts (Count)
system.mem_ctrl.dram.perBankWrBursts::2             0                       # Per bank write bursts (Count)
system.mem_ctrl.dram.perBankWrBursts::3             0                       # Per bank write bursts (Count)
system.mem_ctrl.dram.perBankWrBursts::4             0                       # Per bank write bursts (Count)
system.mem_ctrl.dram.perBankWrBursts::5             0                       # Per bank write bursts (Count)
system.mem_ctrl.dram.perBankWrBursts::6             0                       # Per bank write bursts (Count)
system.mem_ctrl.dram.perBankWrBursts::7             0                       # Per bank write bursts (Count)
system.mem_ctrl.dram.perBankWrBursts::8             0                       # Per bank write bursts (Count)
system.mem_ctrl.dram.perBankWrBursts::9             0                       # Per bank write bursts (Count)
system.mem_ctrl.dram.perBankWrBursts::10            0                       # Per bank write bursts (Count)
system.mem_ctrl.dram.perBankWrBursts::11            0                       # Per bank write bursts (Count)
system.mem_ctrl.dram.perBankWrBursts::12            0                       # Per bank write bursts (Count)
system.mem_ctrl.dram.perBankWrBursts::13            0                       # Per bank write bursts (Count)
system.mem_ctrl.dram.perBankWrBursts::14            0                       # Per bank write bursts (Count)
system.mem_ctrl.dram.perBankWrBursts::15            0                       # Per bank write bursts (Count)
system.mem_ctrl.dram.totQLat                  5656000                       # Total ticks spent queuing (Tick)
system.mem_ctrl.dram.totBusLat                6330000                       # Total ticks spent in databus transfers (Tick)
system.mem_ctrl.dram.totMemAccLat            29393500                       # Total ticks spent from burst creation until serviced by the DRAM (Tick)
system.mem_ctrl.dram.avgQLat                  4467.61                       # Average queueing delay per DRAM burst ((Tick/Count))
system.mem_ctrl.dram.avgBusLat                5000.00                       # Average bus latency per DRAM burst ((Tick/Count))
system.mem_ctrl.dram.avgMemAccLat            23217.61                       # Average memory access latency per DRAM burst ((Tick/Count))
system.mem_ctrl.dram.readRowHits                 1078                       # Number of row buffer hits during reads (Count)
system.mem_ctrl.dram.writeRowHits                   0                       # Number of row buffer hits during writes (Count)
system.mem_ctrl.dram.readRowHitRate             85.15                       # Row buffer hit rate for reads (Ratio)
system.mem_ctrl.dram.writeRowHitRate              nan                       # Row buffer hit rate for writes (Ratio)
system.mem_ctrl.dram.bytesPerActivate::samples          190                       # Bytes accessed per row activation (Byte)
system.mem_ctrl.dram.bytesPerActivate::mean   425.431579                       # Bytes accessed per row activation (Byte)
system.mem_ctrl.dram.bytesPerActivate::gmean   328.454324                       # Bytes accessed per row activation (Byte)
system.mem_ctrl.dram.bytesPerActivate::stdev   230.114517                       # Bytes accessed per row activation (Byte)
system.mem_ctrl.dram.bytesPerActivate::0-127           26     13.68%     13.68% # Bytes accessed per row activation (Byte)
system.mem_ctrl.dram.bytesPerActivate::128-255           33     17.37%     31.05% # Bytes accessed per row activation (Byte)
system.mem_ctrl.dram.bytesPerActivate::256-383           12      6.32%     37.37% # Bytes accessed per row activation (Byte)
system.mem_ctrl.dram.bytesPerActivate::384-511            7      3.68%     41.05% # Bytes accessed per row activation (Byte)
system.mem_ctrl.dram.bytesPerActivate::512-639           73     38.42%     79.47% # Bytes accessed per row activation (Byte)
system.mem_ctrl.dram.bytesPerActivate::640-767           36     18.95%     98.42% # Bytes accessed per row activation (Byte)
system.mem_ctrl.dram.bytesPerActivate::768-895            2      1.05%     99.47% # Bytes accessed per row activation (Byte)
system.mem_ctrl.dram.bytesPerActivate::1024-1151            1      0.53%    100.00% # Bytes accessed per row activation (Byte)
system.mem_ctrl.dram.bytesPerActivate::total          190                       # Bytes accessed per row activation (Byte)
system.mem_ctrl.dram.bytesRead                  81024                       # Total bytes read (Byte)
system.mem_ctrl.dram.bytesWritten                   0                       # Total bytes written (Byte)
system.mem_ctrl.dram.avgRdBW                10.578496                       # Average DRAM read bandwidth in MiBytes/s ((Byte/Second))
system.mem_ctrl.dram.avgWrBW                        0                       # Average DRAM write bandwidth in MiBytes/s ((Byte/Second))
system.mem_ctrl.dram.peakBW                  12800.00                       # Theoretical peak bandwidth in MiByte/s ((Byte/Second))
system.mem_ctrl.dram.busUtil                     0.08                       # Data bus utilization in percentage (Ratio)
system.mem_ctrl.dram.busUtilRead                 0.08                       # Data bus utilization in percentage for reads (Ratio)
system.mem_ctrl.dram.busUtilWrite                0.00                       # Data bus utilization in percentage for writes (Ratio)
system.mem_ctrl.dram.pageHitRate                85.15                       # Row buffer hit rate, read and write combined (Ratio)
system.mem_ctrl.dram.power_state.pwrStateResidencyTicks::UNDEFINED  11782564000                       # Cumulative time (in ticks) in various power states (Tick)
system.mem_ctrl.dram.rank0.actEnergy           506940                       # Energy for activate commands per rank (pJ) (Joule)
system.mem_ctrl.dram.rank0.preEnergy           265650                       # Energy for precharge commands per rank (pJ) (Joule)
system.mem_ctrl.dram.rank0.readEnergy         3477180                       # Energy for read commands per rank (pJ) (Joule)
system.mem_ctrl.dram.rank0.writeEnergy              0                       # Energy for write commands per rank (pJ) (Joule)
system.mem_ctrl.dram.rank0.refreshEnergy 604805760.000000                       # Energy for refresh commands per rank (pJ) (Joule)
system.mem_ctrl.dram.rank0.actBackEnergy    285597930                       # Energy for active background per rank (pJ) (Joule)
system.mem_ctrl.dram.rank0.preBackEnergy   2700862080                       # Energy for precharge background per rank (pJ) (Joule)
system.mem_ctrl.dram.rank0.actPowerDownEnergy            0                       # Energy for active power-down per rank (pJ) (Joule)
system.mem_ctrl.dram.rank0.prePowerDownEnergy            0                       # Energy for precharge power-down per rank (pJ) (Joule)
system.mem_ctrl.dram.rank0.selfRefreshEnergy            0                       # Energy for self refresh per rank (pJ) (Joule)
system.mem_ctrl.dram.rank0.totalEnergy     3595515540                       # Total energy per rank (pJ) (Joule)
system.mem_ctrl.dram.rank0.averagePower    469.430615                       # Core power per rank (mW) (Watt)
system.mem_ctrl.dram.rank0.totalIdleTime            0                       # Total Idle time Per DRAM Rank (Tick)
system.mem_ctrl.dram.rank0.pwrStateTime::IDLE   7019186750                       # Time in different power states (Tick)
system.mem_ctrl.dram.rank0.pwrStateTime::REF    255840000                       # Time in different power states (Tick)
system.mem_ctrl.dram.rank0.pwrStateTime::SREF            0                       # Time in different power states (Tick)
system.mem_ctrl.dram.rank0.pwrStateTime::PRE_PDN            0                       # Time in different power states (Tick)
system.mem_ctrl.dram.rank0.pwrStateTime::ACT    384779250                       # Time in different power states (Tick)
system.mem_ctrl.dram.rank0.pwrStateTime::ACT_PDN            0                       # Time in different power states (Tick)
system.mem_ctrl.dram.rank1.actEnergy           863940                       # Energy for activate commands per rank (pJ) (Joule)
system.mem_ctrl.dram.rank1.preEnergy           455400                       # Energy for precharge commands per rank (pJ) (Joule)
system.mem_ctrl.dram.rank1.readEnergy         5604900                       # Energy for read commands per rank (pJ) (Joule)
system.mem_ctrl.dram.rank1.writeEnergy              0                       # Energy for write commands per rank (pJ) (Joule)
system.mem_ctrl.dram.rank1.refreshEnergy 604805760.000000                       # Energy for refresh commands per rank (pJ) (Joule)
system.mem_ctrl.dram.rank1.actBackEnergy    336458460                       # Energy for active background per rank (pJ) (Joule)
system.mem_ctrl.dram.rank1.preBackEnergy   2659339200                       # Energy for precharge background per rank (pJ) (Joule)
system.mem_ctrl.dram.rank1.actPowerDownEnergy            0                       # Energy for active power-down per rank (pJ) (Joule)
system.mem_ctrl.dram.rank1.prePowerDownEnergy            0                       # Energy for precharge power-down per rank (pJ) (Joule)
system.mem_ctrl.dram.rank1.selfRefreshEnergy            0                       # Energy for self refresh per rank (pJ) (Joule)
system.mem_ctrl.dram.rank1.totalEnergy     3607527660                       # Total energy per rank (pJ) (Joule)
system.mem_ctrl.dram.rank1.averagePower    470.998917                       # Core power per rank (mW) (Watt)
system.mem_ctrl.dram.rank1.totalIdleTime            0                       # Total Idle time Per DRAM Rank (Tick)
system.mem_ctrl.dram.rank1.pwrStateTime::IDLE   6910834500                       # Time in different power states (Tick)
system.mem_ctrl.dram.rank1.pwrStateTime::REF    255840000                       # Time in different power states (Tick)
system.mem_ctrl.dram.rank1.pwrStateTime::SREF            0                       # Time in different power states (Tick)
system.mem_ctrl.dram.rank1.pwrStateTime::PRE_PDN            0                       # Time in different power states (Tick)
system.mem_ctrl.dram.rank1.pwrStateTime::ACT    496534500                       # Time in different power states (Tick)
system.mem_ctrl.dram.rank1.pwrStateTime::ACT_PDN            0                       # Time in different power states (Tick)
system.mem_ctrl.power_state.pwrStateResidencyTicks::UNDEFINED  11782564000                       # Cumulative time (in ticks) in various power states (Tick)
system.membus.transDist::ReadResp                 225                       # Transaction distribution (Count)
system.membus.transDist::ReadExReq               1041                       # Transaction distribution (Count)
system.membus.transDist::ReadExResp              1041                       # Transaction distribution (Count)
system.membus.transDist::ReadSharedReq            225                       # Transaction distribution (Count)
system.membus.pktCount_system.l3cache.mem_side_port::system.mem_ctrl.port         2532                       # Packet count per connected requestor and responder (Count)
system.membus.pktCount_system.l3cache.mem_side_port::total         2532                       # Packet count per connected requestor and responder (Count)
system.membus.pktCount::total                    2532                       # Packet count per connected requestor and responder (Count)
system.membus.pktSize_system.l3cache.mem_side_port::system.mem_ctrl.port        81024                       # Cumulative packet size per connected requestor and responder (Byte)
system.membus.pktSize_system.l3cache.mem_side_port::total        81024                       # Cumulative packet size per connected requestor and responder (Byte)
system.membus.pktSize::total                    81024                       # Cumulative packet size per connected requestor and responder (Byte)
system.membus.snoops                                0                       # Total snoops (Count)
system.membus.snoopTraffic                          0                       # Total snoop traffic (Byte)
system.membus.snoopFanout::samples               1266                       # Request fanout histogram (Count)
system.membus.snoopFanout::mean                     0                       # Request fanout histogram (Count)
system.membus.snoopFanout::stdev                    0                       # Request fanout histogram (Count)
system.membus.snoopFanout::underflows               0      0.00%      0.00% # Request fanout histogram (Count)
system.membus.snoopFanout::0                     1266    100.00%    100.00% # Request fanout histogram (Count)
system.membus.snoopFanout::1                        0      0.00%    100.00% # Request fanout histogram (Count)
system.membus.snoopFanout::overflows                0      0.00%    100.00% # Request fanout histogram (Count)
system.membus.snoopFanout::min_value                0                       # Request fanout histogram (Count)
system.membus.snoopFanout::max_value                0                       # Request fanout histogram (Count)
system.membus.snoopFanout::total                 1266                       # Request fanout histogram (Count)
system.membus.power_state.pwrStateResidencyTicks::UNDEFINED  11782564000                       # Cumulative time (in ticks) in various power states (Tick)
system.membus.reqLayer2.occupancy             1266000                       # Layer occupancy (ticks) (Tick)
system.membus.reqLayer2.utilization               0.0                       # Layer utilization (Ratio)
system.membus.respLayer0.occupancy            6695500                       # Layer occupancy (ticks) (Tick)
system.membus.respLayer0.utilization              0.0                       # Layer utilization (Ratio)
system.membus.snoop_filter.totRequests           1266                       # Total number of requests made to the snoop filter. (Count)
system.membus.snoop_filter.hitSingleRequests            0                       # Number of requests hitting in the snoop filter with a single holder of the requested data. (Count)
system.membus.snoop_filter.hitMultiRequests            0                       # Number of requests hitting in the snoop filter with multiple (>1) holders of the requested data. (Count)
system.membus.snoop_filter.totSnoops                0                       # Total number of snoops made to the snoop filter. (Count)
system.membus.snoop_filter.hitSingleSnoops            0                       # Number of snoops hitting in the snoop filter with a single holder of the requested data. (Count)
system.membus.snoop_filter.hitMultiSnoops            0                       # Number of snoops hitting in the snoop filter with multiple (>1) holders of the requested data. (Count)
system.workload.inst.arm                            0                       # number of arm instructions executed (Count)
system.workload.inst.quiesce                        0                       # number of quiesce instructions executed (Count)

---------- End Simulation Statistics   ----------
