
---------- Begin Simulation Statistics ----------
simSeconds                                   4.094452                       # Number of seconds simulated (Second)
simTicks                                 4094452276000                       # Number of ticks simulated (Tick)
finalTick                                5131935088000                       # Number of ticks from beginning of simulation (restored from checkpoints and never reset) (Tick)
simFreq                                  1000000000000                       # The number of ticks per simulated second ((Tick/Second))
hostSeconds                                   1911.20                       # Real time elapsed on the host (Second)
hostTickRate                               2142349240                       # The number of ticks simulated per host second (ticks/s) ((Tick/Second))
hostMemory                                     699892                       # Number of bytes of host memory used (Byte)
simInsts                                   1551629283                       # Number of instructions simulated (Count)
simOps                                     2365060906                       # Number of ops (including micro ops) simulated (Count)
hostInstRate                                   811862                       # Simulator instruction rate (inst/s) ((Count/Second))
hostOpRate                                    1237476                       # Simulator op (including micro ops) rate (op/s) ((Count/Second))
system.clk_domain.clock                          1000                       # Clock period in ticks (Tick)
system.clk_domain.voltage_domain.voltage            1                       # Voltage in Volts (Volt)
system.cpu.numCycles                       4094452276                       # Number of cpu cycles simulated (Cycle)
system.cpu.numWorkItemsStarted                      0                       # Number of work items this cpu started (Count)
system.cpu.numWorkItemsCompleted                    0                       # Number of work items this cpu completed (Count)
system.cpu.dcache.demandHits::cpu.data      419459142                       # number of demand (read+write) hits (Count)
system.cpu.dcache.demandHits::total         419459142                       # number of demand (read+write) hits (Count)
system.cpu.dcache.overallHits::cpu.data     419459142                       # number of overall hits (Count)
system.cpu.dcache.overallHits::total        419459142                       # number of overall hits (Count)
system.cpu.dcache.demandMisses::cpu.data    125800441                       # number of demand (read+write) misses (Count)
system.cpu.dcache.demandMisses::total       125800441                       # number of demand (read+write) misses (Count)
system.cpu.dcache.overallMisses::cpu.data    125800441                       # number of overall misses (Count)
system.cpu.dcache.overallMisses::total      125800441                       # number of overall misses (Count)
system.cpu.dcache.demandMissLatency::cpu.data 2374754448000                       # number of demand (read+write) miss ticks (Tick)
system.cpu.dcache.demandMissLatency::total 2374754448000                       # number of demand (read+write) miss ticks (Tick)
system.cpu.dcache.overallMissLatency::cpu.data 2374754448000                       # number of overall miss ticks (Tick)
system.cpu.dcache.overallMissLatency::total 2374754448000                       # number of overall miss ticks (Tick)
system.cpu.dcache.demandAccesses::cpu.data    545259583                       # number of demand (read+write) accesses (Count)
system.cpu.dcache.demandAccesses::total     545259583                       # number of demand (read+write) accesses (Count)
system.cpu.dcache.overallAccesses::cpu.data    545259583                       # number of overall (read+write) accesses (Count)
system.cpu.dcache.overallAccesses::total    545259583                       # number of overall (read+write) accesses (Count)
system.cpu.dcache.demandMissRate::cpu.data     0.230717                       # miss rate for demand accesses (Ratio)
system.cpu.dcache.demandMissRate::total      0.230717                       # miss rate for demand accesses (Ratio)
system.cpu.dcache.overallMissRate::cpu.data     0.230717                       # miss rate for overall accesses (Ratio)
system.cpu.dcache.overallMissRate::total     0.230717                       # miss rate for overall accesses (Ratio)
system.cpu.dcache.demandAvgMissLatency::cpu.data 18877.155192                       # average overall miss latency in ticks ((Tick/Count))
system.cpu.dcache.demandAvgMissLatency::total 18877.155192                       # average overall miss latency in ticks ((Tick/Count))
system.cpu.dcache.overallAvgMissLatency::cpu.data 18877.155192                       # average overall miss latency ((Tick/Count))
system.cpu.dcache.overallAvgMissLatency::total 18877.155192                       # average overall miss latency ((Tick/Count))
system.cpu.dcache.blockedCycles::no_mshrs            0                       # number of cycles access was blocked (Cycle)
system.cpu.dcache.blockedCycles::no_targets            0                       # number of cycles access was blocked (Cycle)
system.cpu.dcache.blockedCauses::no_mshrs            0                       # number of times access was blocked (Count)
system.cpu.dcache.blockedCauses::no_targets            0                       # number of times access was blocked (Count)
system.cpu.dcache.avgBlocked::no_mshrs            nan                       # average number of cycles each access was blocked ((Cycle/Count))
system.cpu.dcache.avgBlocked::no_targets          nan                       # average number of cycles each access was blocked ((Cycle/Count))
system.cpu.dcache.writebacks::writebacks     41933735                       # number of writebacks (Count)
system.cpu.dcache.writebacks::total          41933735                       # number of writebacks (Count)
system.cpu.dcache.demandMshrMisses::cpu.data    125800441                       # number of demand (read+write) MSHR misses (Count)
system.cpu.dcache.demandMshrMisses::total    125800441                       # number of demand (read+write) MSHR misses (Count)
system.cpu.dcache.overallMshrMisses::cpu.data    125800441                       # number of overall MSHR misses (Count)
system.cpu.dcache.overallMshrMisses::total    125800441                       # number of overall MSHR misses (Count)
system.cpu.dcache.demandMshrMissLatency::cpu.data 2123153566000                       # number of demand (read+write) MSHR miss ticks (Tick)
system.cpu.dcache.demandMshrMissLatency::total 2123153566000                       # number of demand (read+write) MSHR miss ticks (Tick)
system.cpu.dcache.overallMshrMissLatency::cpu.data 2123153566000                       # number of overall MSHR miss ticks (Tick)
system.cpu.dcache.overallMshrMissLatency::total 2123153566000                       # number of overall MSHR miss ticks (Tick)
system.cpu.dcache.demandMshrMissRate::cpu.data     0.230717                       # mshr miss ratio for demand accesses (Ratio)
system.cpu.dcache.demandMshrMissRate::total     0.230717                       # mshr miss ratio for demand accesses (Ratio)
system.cpu.dcache.overallMshrMissRate::cpu.data     0.230717                       # mshr miss ratio for overall accesses (Ratio)
system.cpu.dcache.overallMshrMissRate::total     0.230717                       # mshr miss ratio for overall accesses (Ratio)
system.cpu.dcache.demandAvgMshrMissLatency::cpu.data 16877.155192                       # average overall mshr miss latency ((Tick/Count))
system.cpu.dcache.demandAvgMshrMissLatency::total 16877.155192                       # average overall mshr miss latency ((Tick/Count))
system.cpu.dcache.overallAvgMshrMissLatency::cpu.data 16877.155192                       # average overall mshr miss latency ((Tick/Count))
system.cpu.dcache.overallAvgMshrMissLatency::total 16877.155192                       # average overall mshr miss latency ((Tick/Count))
system.cpu.dcache.replacements              125800441                       # number of replacements (Count)
system.cpu.dcache.ReadReq.hits::cpu.data    377506522                       # number of ReadReq hits (Count)
system.cpu.dcache.ReadReq.hits::total       377506522                       # number of ReadReq hits (Count)
system.cpu.dcache.ReadReq.misses::cpu.data     83866960                       # number of ReadReq misses (Count)
system.cpu.dcache.ReadReq.misses::total      83866960                       # number of ReadReq misses (Count)
system.cpu.dcache.ReadReq.missLatency::cpu.data 1572916030000                       # number of ReadReq miss ticks (Tick)
system.cpu.dcache.ReadReq.missLatency::total 1572916030000                       # number of ReadReq miss ticks (Tick)
system.cpu.dcache.ReadReq.accesses::cpu.data    461373482                       # number of ReadReq accesses(hits+misses) (Count)
system.cpu.dcache.ReadReq.accesses::total    461373482                       # number of ReadReq accesses(hits+misses) (Count)
system.cpu.dcache.ReadReq.missRate::cpu.data     0.181777                       # miss rate for ReadReq accesses (Ratio)
system.cpu.dcache.ReadReq.missRate::total     0.181777                       # miss rate for ReadReq accesses (Ratio)
system.cpu.dcache.ReadReq.avgMissLatency::cpu.data 18754.895015                       # average ReadReq miss latency ((Tick/Count))
system.cpu.dcache.ReadReq.avgMissLatency::total 18754.895015                       # average ReadReq miss latency ((Tick/Count))
system.cpu.dcache.ReadReq.mshrMisses::cpu.data     83866960                       # number of ReadReq MSHR misses (Count)
system.cpu.dcache.ReadReq.mshrMisses::total     83866960                       # number of ReadReq MSHR misses (Count)
system.cpu.dcache.ReadReq.mshrMissLatency::cpu.data 1405182110000                       # number of ReadReq MSHR miss ticks (Tick)
system.cpu.dcache.ReadReq.mshrMissLatency::total 1405182110000                       # number of ReadReq MSHR miss ticks (Tick)
system.cpu.dcache.ReadReq.mshrMissRate::cpu.data     0.181777                       # mshr miss rate for ReadReq accesses (Ratio)
system.cpu.dcache.ReadReq.mshrMissRate::total     0.181777                       # mshr miss rate for ReadReq accesses (Ratio)
system.cpu.dcache.ReadReq.avgMshrMissLatency::cpu.data 16754.895015                       # average ReadReq mshr miss latency ((Tick/Count))
system.cpu.dcache.ReadReq.avgMshrMissLatency::total 16754.895015                       # average ReadReq mshr miss latency ((Tick/Count))
system.cpu.dcache.WriteReq.hits::cpu.data     41952620                       # number of WriteReq hits (Count)
system.cpu.dcache.WriteReq.hits::total       41952620                       # number of WriteReq hits (Count)
system.cpu.dcache.WriteReq.misses::cpu.data     41933481                       # number of WriteReq misses (Count)
system.cpu.dcache.WriteReq.misses::total     41933481                       # number of WriteReq misses (Count)
system.cpu.dcache.WriteReq.missLatency::cpu.data 801838418000                       # number of WriteReq miss ticks (Tick)
system.cpu.dcache.WriteReq.missLatency::total 801838418000                       # number of WriteReq miss ticks (Tick)
system.cpu.dcache.WriteReq.accesses::cpu.data     83886101                       # number of WriteReq accesses(hits+misses) (Count)
system.cpu.dcache.WriteReq.accesses::total     83886101                       # number of WriteReq accesses(hits+misses) (Count)
system.cpu.dcache.WriteReq.missRate::cpu.data     0.499886                       # miss rate for WriteReq accesses (Ratio)
system.cpu.dcache.WriteReq.missRate::total     0.499886                       # miss rate for WriteReq accesses (Ratio)
system.cpu.dcache.WriteReq.avgMissLatency::cpu.data 19121.675541                       # average WriteReq miss latency ((Tick/Count))
system.cpu.dcache.WriteReq.avgMissLatency::total 19121.675541                       # average WriteReq miss latency ((Tick/Count))
system.cpu.dcache.WriteReq.mshrMisses::cpu.data     41933481                       # number of WriteReq MSHR misses (Count)
system.cpu.dcache.WriteReq.mshrMisses::total     41933481                       # number of WriteReq MSHR misses (Count)
system.cpu.dcache.WriteReq.mshrMissLatency::cpu.data 717971456000                       # number of WriteReq MSHR miss ticks (Tick)
system.cpu.dcache.WriteReq.mshrMissLatency::total 717971456000                       # number of WriteReq MSHR miss ticks (Tick)
system.cpu.dcache.WriteReq.mshrMissRate::cpu.data     0.499886                       # mshr miss rate for WriteReq accesses (Ratio)
system.cpu.dcache.WriteReq.mshrMissRate::total     0.499886                       # mshr miss rate for WriteReq accesses (Ratio)
system.cpu.dcache.WriteReq.avgMshrMissLatency::cpu.data 17121.675541                       # average WriteReq mshr miss latency ((Tick/Count))
system.cpu.dcache.WriteReq.avgMshrMissLatency::total 17121.675541                       # average WriteReq mshr miss latency ((Tick/Count))
system.cpu.dcache.power_state.pwrStateResidencyTicks::UNDEFINED 5131935088000                       # Cumulative time (in ticks) in various power states (Tick)
system.cpu.dcache.tags.tagsInUse                  512                       # Average ticks per tags in use ((Tick/Count))
system.cpu.dcache.tags.totalRefs            327163783                       # Total number of references to valid blocks. (Count)
system.cpu.dcache.tags.sampledRefs          125800441                       # Sample count of references to valid blocks. (Count)
system.cpu.dcache.tags.avgRefs               2.600657                       # Average number of references to valid blocks. ((Count/Count))
system.cpu.dcache.tags.warmupTick                   0                       # The tick when the warmup percentage was hit. (Tick)
system.cpu.dcache.tags.occupancies::cpu.data          512                       # Average occupied blocks per tick, per requestor ((Count/Tick))
system.cpu.dcache.tags.avgOccs::cpu.data            1                       # Average percentage of cache occupancy ((Ratio/Tick))
system.cpu.dcache.tags.avgOccs::total               1                       # Average percentage of cache occupancy ((Ratio/Tick))
system.cpu.dcache.tags.occupanciesTaskId::1024          512                       # Occupied blocks per task id (Count)
system.cpu.dcache.tags.ageTaskId_1024::0           15                       # Occupied blocks per task id, per block age (Count)
system.cpu.dcache.tags.ageTaskId_1024::1          116                       # Occupied blocks per task id, per block age (Count)
system.cpu.dcache.tags.ageTaskId_1024::2          380                       # Occupied blocks per task id, per block age (Count)
system.cpu.dcache.tags.ageTaskId_1024::4            1                       # Occupied blocks per task id, per block age (Count)
system.cpu.dcache.tags.ratioOccsTaskId::1024            1                       # Ratio of occupied blocks and all blocks, per task id (Ratio)
system.cpu.dcache.tags.tagAccesses         1216319607                       # Number of tag accesses (Count)
system.cpu.dcache.tags.dataAccesses        1216319607                       # Number of data accesses (Count)
system.cpu.dcache.tags.power_state.pwrStateResidencyTicks::UNDEFINED 5131935088000                       # Cumulative time (in ticks) in various power states (Tick)
system.cpu.exec_context.thread_0.numInsts    964690009                       # Number of instructions committed (Count)
system.cpu.exec_context.thread_0.numOps    1216348391                       # Number of ops (including micro ops) committed (Count)
system.cpu.exec_context.thread_0.numIntAluAccesses   1216352486                       # Number of integer alu accesses (Count)
system.cpu.exec_context.thread_0.numFpAluAccesses            0                       # Number of float alu accesses (Count)
system.cpu.exec_context.thread_0.numVecAluAccesses            0                       # Number of vector alu accesses (Count)
system.cpu.exec_context.thread_0.numCallsReturns            2                       # Number of times a function call or return occured (Count)
system.cpu.exec_context.thread_0.numCondCtrlInsts     41943061                       # Number of instructions that are conditional controls (Count)
system.cpu.exec_context.thread_0.numIntInsts   1216352486                       # Number of integer instructions (Count)
system.cpu.exec_context.thread_0.numFpInsts            0                       # Number of float instructions (Count)
system.cpu.exec_context.thread_0.numVecInsts            0                       # Number of vector instructions (Count)
system.cpu.exec_context.thread_0.numIntRegReads   1593843927                       # Number of times the integer registers were read (Count)
system.cpu.exec_context.thread_0.numIntRegWrites   1048576154                       # Number of times the integer registers were written (Count)
system.cpu.exec_context.thread_0.numFpRegReads            0                       # Number of times the floating registers were read (Count)
system.cpu.exec_context.thread_0.numFpRegWrites            0                       # Number of times the floating registers were written (Count)
system.cpu.exec_context.thread_0.numVecRegReads            0                       # Number of times the vector registers were read (Count)
system.cpu.exec_context.thread_0.numVecRegWrites            0                       # Number of times the vector registers were written (Count)
system.cpu.exec_context.thread_0.numVecPredRegReads            0                       # Number of times the predicate registers were read (Count)
system.cpu.exec_context.thread_0.numVecPredRegWrites            0                       # Number of times the predicate registers were written (Count)
system.cpu.exec_context.thread_0.numCCRegReads    209715305                       # Number of times the CC registers were read (Count)
system.cpu.exec_context.thread_0.numCCRegWrites    503316542                       # Number of times the CC registers were written (Count)
system.cpu.exec_context.thread_0.numMiscRegReads    629149826                       # Number of times the Misc registers were read (Count)
system.cpu.exec_context.thread_0.numMiscRegWrites            0                       # Number of times the Misc registers were written (Count)
system.cpu.exec_context.thread_0.numMemRefs    545263679                       # Number of memory refs (Count)
system.cpu.exec_context.thread_0.numLoadInsts    461373482                       # Number of load instructions (Count)
system.cpu.exec_context.thread_0.numStoreInsts     83890197                       # Number of store instructions (Count)
system.cpu.exec_context.thread_0.numIdleCycles            0                       # Number of idle cycles (Cycle)
system.cpu.exec_context.thread_0.numBusyCycles   4094452276                       # Number of busy cycles (Cycle)
system.cpu.exec_context.thread_0.notIdleFraction            1                       # Percentage of non-idle cycles (Ratio)
system.cpu.exec_context.thread_0.idleFraction            0                       # Percentage of idle cycles (Ratio)
system.cpu.exec_context.thread_0.numBranches     41943074                       # Number of branches fetched (Count)
system.cpu.exec_context.thread_0.statExecutedInstType::No_OpClass            0      0.00%      0.00% # Class of executed instruction. (Count)
system.cpu.exec_context.thread_0.statExecutedInstType::IntAlu    671088808     55.17%     55.17% # Class of executed instruction. (Count)
system.cpu.exec_context.thread_0.statExecutedInstType::IntMult            0      0.00%     55.17% # Class of executed instruction. (Count)
system.cpu.exec_context.thread_0.statExecutedInstType::IntDiv            0      0.00%     55.17% # Class of executed instruction. (Count)
system.cpu.exec_context.thread_0.statExecutedInstType::FloatAdd            0      0.00%     55.17% # Class of executed instruction. (Count)
system.cpu.exec_context.thread_0.statExecutedInstType::FloatCmp            0      0.00%     55.17% # Class of executed instruction. (Count)
system.cpu.exec_context.thread_0.statExecutedInstType::FloatCvt            0      0.00%     55.17% # Class of executed instruction. (Count)
system.cpu.exec_context.thread_0.statExecutedInstType::FloatMult            0      0.00%     55.17% # Class of executed instruction. (Count)
system.cpu.exec_context.thread_0.statExecutedInstType::FloatMultAcc            0      0.00%     55.17% # Class of executed instruction. (Count)
system.cpu.exec_context.thread_0.statExecutedInstType::FloatDiv            0      0.00%     55.17% # Class of executed instruction. (Count)
system.cpu.exec_context.thread_0.statExecutedInstType::FloatMisc            0      0.00%     55.17% # Class of executed instruction. (Count)
system.cpu.exec_context.thread_0.statExecutedInstType::FloatSqrt            0      0.00%     55.17% # Class of executed instruction. (Count)
system.cpu.exec_context.thread_0.statExecutedInstType::SimdAdd            0      0.00%     55.17% # Class of executed instruction. (Count)
system.cpu.exec_context.thread_0.statExecutedInstType::SimdAddAcc            0      0.00%     55.17% # Class of executed instruction. (Count)
system.cpu.exec_context.thread_0.statExecutedInstType::SimdAlu            0      0.00%     55.17% # Class of executed instruction. (Count)
system.cpu.exec_context.thread_0.statExecutedInstType::SimdCmp            0      0.00%     55.17% # Class of executed instruction. (Count)
system.cpu.exec_context.thread_0.statExecutedInstType::SimdCvt            0      0.00%     55.17% # Class of executed instruction. (Count)
system.cpu.exec_context.thread_0.statExecutedInstType::SimdMisc            0      0.00%     55.17% # Class of executed instruction. (Count)
system.cpu.exec_context.thread_0.statExecutedInstType::SimdMult            0      0.00%     55.17% # Class of executed instruction. (Count)
system.cpu.exec_context.thread_0.statExecutedInstType::SimdMultAcc            0      0.00%     55.17% # Class of executed instruction. (Count)
system.cpu.exec_context.thread_0.statExecutedInstType::SimdShift            0      0.00%     55.17% # Class of executed instruction. (Count)
system.cpu.exec_context.thread_0.statExecutedInstType::SimdShiftAcc            0      0.00%     55.17% # Class of executed instruction. (Count)
system.cpu.exec_context.thread_0.statExecutedInstType::SimdDiv            0      0.00%     55.17% # Class of executed instruction. (Count)
system.cpu.exec_context.thread_0.statExecutedInstType::SimdSqrt            0      0.00%     55.17% # Class of executed instruction. (Count)
system.cpu.exec_context.thread_0.statExecutedInstType::SimdFloatAdd            0      0.00%     55.17% # Class of executed instruction. (Count)
system.cpu.exec_context.thread_0.statExecutedInstType::SimdFloatAlu            0      0.00%     55.17% # Class of executed instruction. (Count)
system.cpu.exec_context.thread_0.statExecutedInstType::SimdFloatCmp            0      0.00%     55.17% # Class of executed instruction. (Count)
system.cpu.exec_context.thread_0.statExecutedInstType::SimdFloatCvt            0      0.00%     55.17% # Class of executed instruction. (Count)
system.cpu.exec_context.thread_0.statExecutedInstType::SimdFloatDiv            0      0.00%     55.17% # Class of executed instruction. (Count)
system.cpu.exec_context.thread_0.statExecutedInstType::SimdFloatMisc            0      0.00%     55.17% # Class of executed instruction. (Count)
system.cpu.exec_context.thread_0.statExecutedInstType::SimdFloatMult            0      0.00%     55.17% # Class of executed instruction. (Count)
system.cpu.exec_context.thread_0.statExecutedInstType::SimdFloatMultAcc            0      0.00%     55.17% # Class of executed instruction. (Count)
system.cpu.exec_context.thread_0.statExecutedInstType::SimdFloatSqrt            0      0.00%     55.17% # Class of executed instruction. (Count)
system.cpu.exec_context.thread_0.statExecutedInstType::SimdReduceAdd            0      0.00%     55.17% # Class of executed instruction. (Count)
system.cpu.exec_context.thread_0.statExecutedInstType::SimdReduceAlu            0      0.00%     55.17% # Class of executed instruction. (Count)
system.cpu.exec_context.thread_0.statExecutedInstType::SimdReduceCmp            0      0.00%     55.17% # Class of executed instruction. (Count)
system.cpu.exec_context.thread_0.statExecutedInstType::SimdFloatReduceAdd            0      0.00%     55.17% # Class of executed instruction. (Count)
system.cpu.exec_context.thread_0.statExecutedInstType::SimdFloatReduceCmp            0      0.00%     55.17% # Class of executed instruction. (Count)
system.cpu.exec_context.thread_0.statExecutedInstType::SimdAes            0      0.00%     55.17% # Class of executed instruction. (Count)
system.cpu.exec_context.thread_0.statExecutedInstType::SimdAesMix            0      0.00%     55.17% # Class of executed instruction. (Count)
system.cpu.exec_context.thread_0.statExecutedInstType::SimdSha1Hash            0      0.00%     55.17% # Class of executed instruction. (Count)
system.cpu.exec_context.thread_0.statExecutedInstType::SimdSha1Hash2            0      0.00%     55.17% # Class of executed instruction. (Count)
system.cpu.exec_context.thread_0.statExecutedInstType::SimdSha256Hash            0      0.00%     55.17% # Class of executed instruction. (Count)
system.cpu.exec_context.thread_0.statExecutedInstType::SimdSha256Hash2            0      0.00%     55.17% # Class of executed instruction. (Count)
system.cpu.exec_context.thread_0.statExecutedInstType::SimdShaSigma2            0      0.00%     55.17% # Class of executed instruction. (Count)
system.cpu.exec_context.thread_0.statExecutedInstType::SimdShaSigma3            0      0.00%     55.17% # Class of executed instruction. (Count)
system.cpu.exec_context.thread_0.statExecutedInstType::SimdPredAlu            0      0.00%     55.17% # Class of executed instruction. (Count)
system.cpu.exec_context.thread_0.statExecutedInstType::MemRead    461373482     37.93%     93.10% # Class of executed instruction. (Count)
system.cpu.exec_context.thread_0.statExecutedInstType::MemWrite     83890197      6.90%    100.00% # Class of executed instruction. (Count)
system.cpu.exec_context.thread_0.statExecutedInstType::FloatMemRead            0      0.00%    100.00% # Class of executed instruction. (Count)
system.cpu.exec_context.thread_0.statExecutedInstType::FloatMemWrite            0      0.00%    100.00% # Class of executed instruction. (Count)
system.cpu.exec_context.thread_0.statExecutedInstType::IprAccess            0      0.00%    100.00% # Class of executed instruction. (Count)
system.cpu.exec_context.thread_0.statExecutedInstType::InstPrefetch            0      0.00%    100.00% # Class of executed instruction. (Count)
system.cpu.exec_context.thread_0.statExecutedInstType::total   1216352487                       # Class of executed instruction. (Count)
system.cpu.icache.demandHits::cpu.inst     1300238456                       # number of demand (read+write) hits (Count)
system.cpu.icache.demandHits::total        1300238456                       # number of demand (read+write) hits (Count)
system.cpu.icache.overallHits::cpu.inst    1300238456                       # number of overall hits (Count)
system.cpu.icache.overallHits::total       1300238456                       # number of overall hits (Count)
system.cpu.icache.demandMisses::cpu.inst            2                       # number of demand (read+write) misses (Count)
system.cpu.icache.demandMisses::total               2                       # number of demand (read+write) misses (Count)
system.cpu.icache.overallMisses::cpu.inst            2                       # number of overall misses (Count)
system.cpu.icache.overallMisses::total              2                       # number of overall misses (Count)
system.cpu.icache.demandMissLatency::cpu.inst       230000                       # number of demand (read+write) miss ticks (Tick)
system.cpu.icache.demandMissLatency::total       230000                       # number of demand (read+write) miss ticks (Tick)
system.cpu.icache.overallMissLatency::cpu.inst       230000                       # number of overall miss ticks (Tick)
system.cpu.icache.overallMissLatency::total       230000                       # number of overall miss ticks (Tick)
system.cpu.icache.demandAccesses::cpu.inst   1300238458                       # number of demand (read+write) accesses (Count)
system.cpu.icache.demandAccesses::total    1300238458                       # number of demand (read+write) accesses (Count)
system.cpu.icache.overallAccesses::cpu.inst   1300238458                       # number of overall (read+write) accesses (Count)
system.cpu.icache.overallAccesses::total   1300238458                       # number of overall (read+write) accesses (Count)
system.cpu.icache.demandMissRate::cpu.inst     0.000000                       # miss rate for demand accesses (Ratio)
system.cpu.icache.demandMissRate::total      0.000000                       # miss rate for demand accesses (Ratio)
system.cpu.icache.overallMissRate::cpu.inst     0.000000                       # miss rate for overall accesses (Ratio)
system.cpu.icache.overallMissRate::total     0.000000                       # miss rate for overall accesses (Ratio)
system.cpu.icache.demandAvgMissLatency::cpu.inst       115000                       # average overall miss latency in ticks ((Tick/Count))
system.cpu.icache.demandAvgMissLatency::total       115000                       # average overall miss latency in ticks ((Tick/Count))
system.cpu.icache.overallAvgMissLatency::cpu.inst       115000                       # average overall miss latency ((Tick/Count))
system.cpu.icache.overallAvgMissLatency::total       115000                       # average overall miss latency ((Tick/Count))
system.cpu.icache.blockedCycles::no_mshrs            0                       # number of cycles access was blocked (Cycle)
system.cpu.icache.blockedCycles::no_targets            0                       # number of cycles access was blocked (Cycle)
system.cpu.icache.blockedCauses::no_mshrs            0                       # number of times access was blocked (Count)
system.cpu.icache.blockedCauses::no_targets            0                       # number of times access was blocked (Count)
system.cpu.icache.avgBlocked::no_mshrs            nan                       # average number of cycles each access was blocked ((Cycle/Count))
system.cpu.icache.avgBlocked::no_targets          nan                       # average number of cycles each access was blocked ((Cycle/Count))
system.cpu.icache.demandMshrMisses::cpu.inst            2                       # number of demand (read+write) MSHR misses (Count)
system.cpu.icache.demandMshrMisses::total            2                       # number of demand (read+write) MSHR misses (Count)
system.cpu.icache.overallMshrMisses::cpu.inst            2                       # number of overall MSHR misses (Count)
system.cpu.icache.overallMshrMisses::total            2                       # number of overall MSHR misses (Count)
system.cpu.icache.demandMshrMissLatency::cpu.inst       226000                       # number of demand (read+write) MSHR miss ticks (Tick)
system.cpu.icache.demandMshrMissLatency::total       226000                       # number of demand (read+write) MSHR miss ticks (Tick)
system.cpu.icache.overallMshrMissLatency::cpu.inst       226000                       # number of overall MSHR miss ticks (Tick)
system.cpu.icache.overallMshrMissLatency::total       226000                       # number of overall MSHR miss ticks (Tick)
system.cpu.icache.demandMshrMissRate::cpu.inst     0.000000                       # mshr miss ratio for demand accesses (Ratio)
system.cpu.icache.demandMshrMissRate::total     0.000000                       # mshr miss ratio for demand accesses (Ratio)
system.cpu.icache.overallMshrMissRate::cpu.inst     0.000000                       # mshr miss ratio for overall accesses (Ratio)
system.cpu.icache.overallMshrMissRate::total     0.000000                       # mshr miss ratio for overall accesses (Ratio)
system.cpu.icache.demandAvgMshrMissLatency::cpu.inst       113000                       # average overall mshr miss latency ((Tick/Count))
system.cpu.icache.demandAvgMshrMissLatency::total       113000                       # average overall mshr miss latency ((Tick/Count))
system.cpu.icache.overallAvgMshrMissLatency::cpu.inst       113000                       # average overall mshr miss latency ((Tick/Count))
system.cpu.icache.overallAvgMshrMissLatency::total       113000                       # average overall mshr miss latency ((Tick/Count))
system.cpu.icache.replacements                      2                       # number of replacements (Count)
system.cpu.icache.ReadReq.hits::cpu.inst   1300238456                       # number of ReadReq hits (Count)
system.cpu.icache.ReadReq.hits::total      1300238456                       # number of ReadReq hits (Count)
system.cpu.icache.ReadReq.misses::cpu.inst            2                       # number of ReadReq misses (Count)
system.cpu.icache.ReadReq.misses::total             2                       # number of ReadReq misses (Count)
system.cpu.icache.ReadReq.missLatency::cpu.inst       230000                       # number of ReadReq miss ticks (Tick)
system.cpu.icache.ReadReq.missLatency::total       230000                       # number of ReadReq miss ticks (Tick)
system.cpu.icache.ReadReq.accesses::cpu.inst   1300238458                       # number of ReadReq accesses(hits+misses) (Count)
system.cpu.icache.ReadReq.accesses::total   1300238458                       # number of ReadReq accesses(hits+misses) (Count)
system.cpu.icache.ReadReq.missRate::cpu.inst     0.000000                       # miss rate for ReadReq accesses (Ratio)
system.cpu.icache.ReadReq.missRate::total     0.000000                       # miss rate for ReadReq accesses (Ratio)
system.cpu.icache.ReadReq.avgMissLatency::cpu.inst       115000                       # average ReadReq miss latency ((Tick/Count))
system.cpu.icache.ReadReq.avgMissLatency::total       115000                       # average ReadReq miss latency ((Tick/Count))
system.cpu.icache.ReadReq.mshrMisses::cpu.inst            2                       # number of ReadReq MSHR misses (Count)
system.cpu.icache.ReadReq.mshrMisses::total            2                       # number of ReadReq MSHR misses (Count)
system.cpu.icache.ReadReq.mshrMissLatency::cpu.inst       226000                       # number of ReadReq MSHR miss ticks (Tick)
system.cpu.icache.ReadReq.mshrMissLatency::total       226000                       # number of ReadReq MSHR miss ticks (Tick)
system.cpu.icache.ReadReq.mshrMissRate::cpu.inst     0.000000                       # mshr miss rate for ReadReq accesses (Ratio)
system.cpu.icache.ReadReq.mshrMissRate::total     0.000000                       # mshr miss rate for ReadReq accesses (Ratio)
system.cpu.icache.ReadReq.avgMshrMissLatency::cpu.inst       113000                       # average ReadReq mshr miss latency ((Tick/Count))
system.cpu.icache.ReadReq.avgMshrMissLatency::total       113000                       # average ReadReq mshr miss latency ((Tick/Count))
system.cpu.icache.power_state.pwrStateResidencyTicks::UNDEFINED 5131935088000                       # Cumulative time (in ticks) in various power states (Tick)
system.cpu.icache.tags.tagsInUse                  233                       # Average ticks per tags in use ((Tick/Count))
system.cpu.icache.tags.totalRefs                   10                       # Total number of references to valid blocks. (Count)
system.cpu.icache.tags.sampledRefs                  2                       # Sample count of references to valid blocks. (Count)
system.cpu.icache.tags.avgRefs                      5                       # Average number of references to valid blocks. ((Count/Count))
system.cpu.icache.tags.warmupTick                   0                       # The tick when the warmup percentage was hit. (Tick)
system.cpu.icache.tags.occupancies::cpu.inst          233                       # Average occupied blocks per tick, per requestor ((Count/Tick))
system.cpu.icache.tags.avgOccs::cpu.inst     0.910156                       # Average percentage of cache occupancy ((Ratio/Tick))
system.cpu.icache.tags.avgOccs::total        0.910156                       # Average percentage of cache occupancy ((Ratio/Tick))
system.cpu.icache.tags.occupanciesTaskId::1024          233                       # Occupied blocks per task id (Count)
system.cpu.icache.tags.ageTaskId_1024::0            1                       # Occupied blocks per task id, per block age (Count)
system.cpu.icache.tags.ageTaskId_1024::4          232                       # Occupied blocks per task id, per block age (Count)
system.cpu.icache.tags.ratioOccsTaskId::1024     0.910156                       # Ratio of occupied blocks and all blocks, per task id (Ratio)
system.cpu.icache.tags.tagAccesses         2600476918                       # Number of tag accesses (Count)
system.cpu.icache.tags.dataAccesses        2600476918                       # Number of data accesses (Count)
system.cpu.icache.tags.power_state.pwrStateResidencyTicks::UNDEFINED 5131935088000                       # Cumulative time (in ticks) in various power states (Tick)
system.cpu.interrupts.clk_domain.clock          16000                       # Clock period in ticks (Tick)
system.cpu.mmu.dtb.rdAccesses               461373482                       # TLB accesses on read requests (Count)
system.cpu.mmu.dtb.wrAccesses                83890197                       # TLB accesses on write requests (Count)
system.cpu.mmu.dtb.rdMisses                     81940                       # TLB misses on read requests (Count)
system.cpu.mmu.dtb.wrMisses                     45066                       # TLB misses on write requests (Count)
system.cpu.mmu.dtb.walker.power_state.pwrStateResidencyTicks::UNDEFINED 5131935088000                       # Cumulative time (in ticks) in various power states (Tick)
system.cpu.mmu.itb.rdAccesses                       0                       # TLB accesses on read requests (Count)
system.cpu.mmu.itb.wrAccesses              1300238458                       # TLB accesses on write requests (Count)
system.cpu.mmu.itb.rdMisses                         0                       # TLB misses on read requests (Count)
system.cpu.mmu.itb.wrMisses                         0                       # TLB misses on write requests (Count)
system.cpu.mmu.itb.walker.power_state.pwrStateResidencyTicks::UNDEFINED 5131935088000                       # Cumulative time (in ticks) in various power states (Tick)
system.cpu.power_state.pwrStateResidencyTicks::ON 5131935088000                       # Cumulative time (in ticks) in various power states (Tick)
system.cpu.thread_0.numInsts                        0                       # Number of Instructions committed (Count)
system.cpu.thread_0.numOps                          0                       # Number of Ops committed (Count)
system.cpu.thread_0.numMemRefs                      0                       # Number of Memory References (Count)
system.cpu.workload.numSyscalls                     0                       # Number of system calls (Count)
system.l2bus.transDist::ReadResp             83866962                       # Transaction distribution (Count)
system.l2bus.transDist::WritebackDirty       44557747                       # Transaction distribution (Count)
system.l2bus.transDist::CleanEvict           89107062                       # Transaction distribution (Count)
system.l2bus.transDist::ReadExReq            41933481                       # Transaction distribution (Count)
system.l2bus.transDist::ReadExResp           41933481                       # Transaction distribution (Count)
system.l2bus.transDist::ReadSharedReq        83866962                       # Transaction distribution (Count)
system.l2bus.pktCount_system.cpu.icache.mem_side_port::system.l2cache.cpu_side_port            6                       # Packet count per connected requestor and responder (Count)
system.l2bus.pktCount_system.cpu.dcache.mem_side_port::system.l2cache.cpu_side_port    377401323                       # Packet count per connected requestor and responder (Count)
system.l2bus.pktCount::total                377401329                       # Packet count per connected requestor and responder (Count)
system.l2bus.pktSize_system.cpu.icache.mem_side_port::system.l2cache.cpu_side_port          128                       # Cumulative packet size per connected requestor and responder (Byte)
system.l2bus.pktSize_system.cpu.dcache.mem_side_port::system.l2cache.cpu_side_port  10734987264                       # Cumulative packet size per connected requestor and responder (Byte)
system.l2bus.pktSize::total               10734987392                       # Cumulative packet size per connected requestor and responder (Byte)
system.l2bus.snoops                           7864366                       # Total snoops (Count)
system.l2bus.snoopTraffic                   167936768                       # Total snoop traffic (Byte)
system.l2bus.snoopFanout::samples           133664809                       # Request fanout histogram (Count)
system.l2bus.snoopFanout::mean               0.000000                       # Request fanout histogram (Count)
system.l2bus.snoopFanout::stdev              0.000300                       # Request fanout histogram (Count)
system.l2bus.snoopFanout::underflows                0      0.00%      0.00% # Request fanout histogram (Count)
system.l2bus.snoopFanout::0                 133664797    100.00%    100.00% # Request fanout histogram (Count)
system.l2bus.snoopFanout::1                        12      0.00%    100.00% # Request fanout histogram (Count)
system.l2bus.snoopFanout::2                         0      0.00%    100.00% # Request fanout histogram (Count)
system.l2bus.snoopFanout::overflows                 0      0.00%    100.00% # Request fanout histogram (Count)
system.l2bus.snoopFanout::min_value                 0                       # Request fanout histogram (Count)
system.l2bus.snoopFanout::max_value                 1                       # Request fanout histogram (Count)
system.l2bus.snoopFanout::total             133664809                       # Request fanout histogram (Count)
system.l2bus.power_state.pwrStateResidencyTicks::UNDEFINED 5131935088000                       # Cumulative time (in ticks) in various power states (Tick)
system.l2bus.reqLayer0.occupancy         335468356000                       # Layer occupancy (ticks) (Tick)
system.l2bus.reqLayer0.utilization                0.1                       # Layer utilization (Ratio)
system.l2bus.respLayer0.occupancy                6000                       # Layer occupancy (ticks) (Tick)
system.l2bus.respLayer0.utilization               0.0                       # Layer utilization (Ratio)
system.l2bus.respLayer1.occupancy        377401323000                       # Layer occupancy (ticks) (Tick)
system.l2bus.respLayer1.utilization               0.1                       # Layer utilization (Ratio)
system.l2bus.snoop_filter.totRequests       251600886                       # Total number of requests made to the snoop filter. (Count)
system.l2bus.snoop_filter.hitSingleRequests    125800443                       # Number of requests hitting in the snoop filter with a single holder of the requested data. (Count)
system.l2bus.snoop_filter.hitMultiRequests            0                       # Number of requests hitting in the snoop filter with multiple (>1) holders of the requested data. (Count)
system.l2bus.snoop_filter.totSnoops                12                       # Total number of snoops made to the snoop filter. (Count)
system.l2bus.snoop_filter.hitSingleSnoops           12                       # Number of snoops hitting in the snoop filter with a single holder of the requested data. (Count)
system.l2bus.snoop_filter.hitMultiSnoops            0                       # Number of snoops hitting in the snoop filter with multiple (>1) holders of the requested data. (Count)
system.l2cache.demandHits::cpu.data         117936090                       # number of demand (read+write) hits (Count)
system.l2cache.demandHits::total            117936090                       # number of demand (read+write) hits (Count)
system.l2cache.overallHits::cpu.data        117936090                       # number of overall hits (Count)
system.l2cache.overallHits::total           117936090                       # number of overall hits (Count)
system.l2cache.demandMisses::cpu.inst               2                       # number of demand (read+write) misses (Count)
system.l2cache.demandMisses::cpu.data         7864351                       # number of demand (read+write) misses (Count)
system.l2cache.demandMisses::total            7864353                       # number of demand (read+write) misses (Count)
system.l2cache.overallMisses::cpu.inst              2                       # number of overall misses (Count)
system.l2cache.overallMisses::cpu.data        7864351                       # number of overall misses (Count)
system.l2cache.overallMisses::total           7864353                       # number of overall misses (Count)
system.l2cache.demandMissLatency::cpu.inst       222000                       # number of demand (read+write) miss ticks (Tick)
system.l2cache.demandMissLatency::cpu.data 1046000054000                       # number of demand (read+write) miss ticks (Tick)
system.l2cache.demandMissLatency::total  1046000276000                       # number of demand (read+write) miss ticks (Tick)
system.l2cache.overallMissLatency::cpu.inst       222000                       # number of overall miss ticks (Tick)
system.l2cache.overallMissLatency::cpu.data 1046000054000                       # number of overall miss ticks (Tick)
system.l2cache.overallMissLatency::total 1046000276000                       # number of overall miss ticks (Tick)
system.l2cache.demandAccesses::cpu.inst             2                       # number of demand (read+write) accesses (Count)
system.l2cache.demandAccesses::cpu.data     125800441                       # number of demand (read+write) accesses (Count)
system.l2cache.demandAccesses::total        125800443                       # number of demand (read+write) accesses (Count)
system.l2cache.overallAccesses::cpu.inst            2                       # number of overall (read+write) accesses (Count)
system.l2cache.overallAccesses::cpu.data    125800441                       # number of overall (read+write) accesses (Count)
system.l2cache.overallAccesses::total       125800443                       # number of overall (read+write) accesses (Count)
system.l2cache.demandMissRate::cpu.inst             1                       # miss rate for demand accesses (Ratio)
system.l2cache.demandMissRate::cpu.data      0.062514                       # miss rate for demand accesses (Ratio)
system.l2cache.demandMissRate::total         0.062515                       # miss rate for demand accesses (Ratio)
system.l2cache.overallMissRate::cpu.inst            1                       # miss rate for overall accesses (Ratio)
system.l2cache.overallMissRate::cpu.data     0.062514                       # miss rate for overall accesses (Ratio)
system.l2cache.overallMissRate::total        0.062515                       # miss rate for overall accesses (Ratio)
system.l2cache.demandAvgMissLatency::cpu.inst       111000                       # average overall miss latency in ticks ((Tick/Count))
system.l2cache.demandAvgMissLatency::cpu.data 133005.260574                       # average overall miss latency in ticks ((Tick/Count))
system.l2cache.demandAvgMissLatency::total 133005.254978                       # average overall miss latency in ticks ((Tick/Count))
system.l2cache.overallAvgMissLatency::cpu.inst       111000                       # average overall miss latency ((Tick/Count))
system.l2cache.overallAvgMissLatency::cpu.data 133005.260574                       # average overall miss latency ((Tick/Count))
system.l2cache.overallAvgMissLatency::total 133005.254978                       # average overall miss latency ((Tick/Count))
system.l2cache.blockedCycles::no_mshrs              0                       # number of cycles access was blocked (Cycle)
system.l2cache.blockedCycles::no_targets            0                       # number of cycles access was blocked (Cycle)
system.l2cache.blockedCauses::no_mshrs              0                       # number of times access was blocked (Count)
system.l2cache.blockedCauses::no_targets            0                       # number of times access was blocked (Count)
system.l2cache.avgBlocked::no_mshrs               nan                       # average number of cycles each access was blocked ((Cycle/Count))
system.l2cache.avgBlocked::no_targets             nan                       # average number of cycles each access was blocked ((Cycle/Count))
system.l2cache.writebacks::writebacks         2624012                       # number of writebacks (Count)
system.l2cache.writebacks::total              2624012                       # number of writebacks (Count)
system.l2cache.demandMshrMisses::cpu.inst            2                       # number of demand (read+write) MSHR misses (Count)
system.l2cache.demandMshrMisses::cpu.data      7864351                       # number of demand (read+write) MSHR misses (Count)
system.l2cache.demandMshrMisses::total        7864353                       # number of demand (read+write) MSHR misses (Count)
system.l2cache.overallMshrMisses::cpu.inst            2                       # number of overall MSHR misses (Count)
system.l2cache.overallMshrMisses::cpu.data      7864351                       # number of overall MSHR misses (Count)
system.l2cache.overallMshrMisses::total       7864353                       # number of overall MSHR misses (Count)
system.l2cache.demandMshrMissLatency::cpu.inst       182000                       # number of demand (read+write) MSHR miss ticks (Tick)
system.l2cache.demandMshrMissLatency::cpu.data 888713034000                       # number of demand (read+write) MSHR miss ticks (Tick)
system.l2cache.demandMshrMissLatency::total 888713216000                       # number of demand (read+write) MSHR miss ticks (Tick)
system.l2cache.overallMshrMissLatency::cpu.inst       182000                       # number of overall MSHR miss ticks (Tick)
system.l2cache.overallMshrMissLatency::cpu.data 888713034000                       # number of overall MSHR miss ticks (Tick)
system.l2cache.overallMshrMissLatency::total 888713216000                       # number of overall MSHR miss ticks (Tick)
system.l2cache.demandMshrMissRate::cpu.inst            1                       # mshr miss ratio for demand accesses (Ratio)
system.l2cache.demandMshrMissRate::cpu.data     0.062514                       # mshr miss ratio for demand accesses (Ratio)
system.l2cache.demandMshrMissRate::total     0.062515                       # mshr miss ratio for demand accesses (Ratio)
system.l2cache.overallMshrMissRate::cpu.inst            1                       # mshr miss ratio for overall accesses (Ratio)
system.l2cache.overallMshrMissRate::cpu.data     0.062514                       # mshr miss ratio for overall accesses (Ratio)
system.l2cache.overallMshrMissRate::total     0.062515                       # mshr miss ratio for overall accesses (Ratio)
system.l2cache.demandAvgMshrMissLatency::cpu.inst        91000                       # average overall mshr miss latency ((Tick/Count))
system.l2cache.demandAvgMshrMissLatency::cpu.data 113005.260574                       # average overall mshr miss latency ((Tick/Count))
system.l2cache.demandAvgMshrMissLatency::total 113005.254978                       # average overall mshr miss latency ((Tick/Count))
system.l2cache.overallAvgMshrMissLatency::cpu.inst        91000                       # average overall mshr miss latency ((Tick/Count))
system.l2cache.overallAvgMshrMissLatency::cpu.data 113005.260574                       # average overall mshr miss latency ((Tick/Count))
system.l2cache.overallAvgMshrMissLatency::total 113005.254978                       # average overall mshr miss latency ((Tick/Count))
system.l2cache.replacements                   7864360                       # number of replacements (Count)
system.l2cache.CleanEvict.mshrMisses::writebacks            2                       # number of CleanEvict MSHR misses (Count)
system.l2cache.CleanEvict.mshrMisses::total            2                       # number of CleanEvict MSHR misses (Count)
system.l2cache.CleanEvict.mshrMissRate::writebacks          inf                       # mshr miss rate for CleanEvict accesses (Ratio)
system.l2cache.CleanEvict.mshrMissRate::total          inf                       # mshr miss rate for CleanEvict accesses (Ratio)
system.l2cache.ReadExReq.hits::cpu.data      39312030                       # number of ReadExReq hits (Count)
system.l2cache.ReadExReq.hits::total         39312030                       # number of ReadExReq hits (Count)
system.l2cache.ReadExReq.misses::cpu.data      2621451                       # number of ReadExReq misses (Count)
system.l2cache.ReadExReq.misses::total        2621451                       # number of ReadExReq misses (Count)
system.l2cache.ReadExReq.missLatency::cpu.data 358920284000                       # number of ReadExReq miss ticks (Tick)
system.l2cache.ReadExReq.missLatency::total 358920284000                       # number of ReadExReq miss ticks (Tick)
system.l2cache.ReadExReq.accesses::cpu.data     41933481                       # number of ReadExReq accesses(hits+misses) (Count)
system.l2cache.ReadExReq.accesses::total     41933481                       # number of ReadExReq accesses(hits+misses) (Count)
system.l2cache.ReadExReq.missRate::cpu.data     0.062515                       # miss rate for ReadExReq accesses (Ratio)
system.l2cache.ReadExReq.missRate::total     0.062515                       # miss rate for ReadExReq accesses (Ratio)
system.l2cache.ReadExReq.avgMissLatency::cpu.data 136916.648070                       # average ReadExReq miss latency ((Tick/Count))
system.l2cache.ReadExReq.avgMissLatency::total 136916.648070                       # average ReadExReq miss latency ((Tick/Count))
system.l2cache.ReadExReq.mshrMisses::cpu.data      2621451                       # number of ReadExReq MSHR misses (Count)
system.l2cache.ReadExReq.mshrMisses::total      2621451                       # number of ReadExReq MSHR misses (Count)
system.l2cache.ReadExReq.mshrMissLatency::cpu.data 306491264000                       # number of ReadExReq MSHR miss ticks (Tick)
system.l2cache.ReadExReq.mshrMissLatency::total 306491264000                       # number of ReadExReq MSHR miss ticks (Tick)
system.l2cache.ReadExReq.mshrMissRate::cpu.data     0.062515                       # mshr miss rate for ReadExReq accesses (Ratio)
system.l2cache.ReadExReq.mshrMissRate::total     0.062515                       # mshr miss rate for ReadExReq accesses (Ratio)
system.l2cache.ReadExReq.avgMshrMissLatency::cpu.data 116916.648070                       # average ReadExReq mshr miss latency ((Tick/Count))
system.l2cache.ReadExReq.avgMshrMissLatency::total 116916.648070                       # average ReadExReq mshr miss latency ((Tick/Count))
system.l2cache.ReadSharedReq.hits::cpu.data     78624060                       # number of ReadSharedReq hits (Count)
system.l2cache.ReadSharedReq.hits::total     78624060                       # number of ReadSharedReq hits (Count)
system.l2cache.ReadSharedReq.misses::cpu.inst            2                       # number of ReadSharedReq misses (Count)
system.l2cache.ReadSharedReq.misses::cpu.data      5242900                       # number of ReadSharedReq misses (Count)
system.l2cache.ReadSharedReq.misses::total      5242902                       # number of ReadSharedReq misses (Count)
system.l2cache.ReadSharedReq.missLatency::cpu.inst       222000                       # number of ReadSharedReq miss ticks (Tick)
system.l2cache.ReadSharedReq.missLatency::cpu.data 687079770000                       # number of ReadSharedReq miss ticks (Tick)
system.l2cache.ReadSharedReq.missLatency::total 687079992000                       # number of ReadSharedReq miss ticks (Tick)
system.l2cache.ReadSharedReq.accesses::cpu.inst            2                       # number of ReadSharedReq accesses(hits+misses) (Count)
system.l2cache.ReadSharedReq.accesses::cpu.data     83866960                       # number of ReadSharedReq accesses(hits+misses) (Count)
system.l2cache.ReadSharedReq.accesses::total     83866962                       # number of ReadSharedReq accesses(hits+misses) (Count)
system.l2cache.ReadSharedReq.missRate::cpu.inst            1                       # miss rate for ReadSharedReq accesses (Ratio)
system.l2cache.ReadSharedReq.missRate::cpu.data     0.062514                       # miss rate for ReadSharedReq accesses (Ratio)
system.l2cache.ReadSharedReq.missRate::total     0.062515                       # miss rate for ReadSharedReq accesses (Ratio)
system.l2cache.ReadSharedReq.avgMissLatency::cpu.inst       111000                       # average ReadSharedReq miss latency ((Tick/Count))
system.l2cache.ReadSharedReq.avgMissLatency::cpu.data 131049.566080                       # average ReadSharedReq miss latency ((Tick/Count))
system.l2cache.ReadSharedReq.avgMissLatency::total 131049.558432                       # average ReadSharedReq miss latency ((Tick/Count))
system.l2cache.ReadSharedReq.mshrMisses::cpu.inst            2                       # number of ReadSharedReq MSHR misses (Count)
system.l2cache.ReadSharedReq.mshrMisses::cpu.data      5242900                       # number of ReadSharedReq MSHR misses (Count)
system.l2cache.ReadSharedReq.mshrMisses::total      5242902                       # number of ReadSharedReq MSHR misses (Count)
system.l2cache.ReadSharedReq.mshrMissLatency::cpu.inst       182000                       # number of ReadSharedReq MSHR miss ticks (Tick)
system.l2cache.ReadSharedReq.mshrMissLatency::cpu.data 582221770000                       # number of ReadSharedReq MSHR miss ticks (Tick)
system.l2cache.ReadSharedReq.mshrMissLatency::total 582221952000                       # number of ReadSharedReq MSHR miss ticks (Tick)
system.l2cache.ReadSharedReq.mshrMissRate::cpu.inst            1                       # mshr miss rate for ReadSharedReq accesses (Ratio)
system.l2cache.ReadSharedReq.mshrMissRate::cpu.data     0.062514                       # mshr miss rate for ReadSharedReq accesses (Ratio)
system.l2cache.ReadSharedReq.mshrMissRate::total     0.062515                       # mshr miss rate for ReadSharedReq accesses (Ratio)
system.l2cache.ReadSharedReq.avgMshrMissLatency::cpu.inst        91000                       # average ReadSharedReq mshr miss latency ((Tick/Count))
system.l2cache.ReadSharedReq.avgMshrMissLatency::cpu.data 111049.566080                       # average ReadSharedReq mshr miss latency ((Tick/Count))
system.l2cache.ReadSharedReq.avgMshrMissLatency::total 111049.558432                       # average ReadSharedReq mshr miss latency ((Tick/Count))
system.l2cache.WritebackDirty.hits::writebacks     41933735                       # number of WritebackDirty hits (Count)
system.l2cache.WritebackDirty.hits::total     41933735                       # number of WritebackDirty hits (Count)
system.l2cache.WritebackDirty.accesses::writebacks     41933735                       # number of WritebackDirty accesses(hits+misses) (Count)
system.l2cache.WritebackDirty.accesses::total     41933735                       # number of WritebackDirty accesses(hits+misses) (Count)
system.l2cache.power_state.pwrStateResidencyTicks::UNDEFINED 5131935088000                       # Cumulative time (in ticks) in various power states (Tick)
system.l2cache.tags.tagsInUse                    4096                       # Average ticks per tags in use ((Tick/Count))
system.l2cache.tags.totalRefs               251478139                       # Total number of references to valid blocks. (Count)
system.l2cache.tags.sampledRefs               7864360                       # Sample count of references to valid blocks. (Count)
system.l2cache.tags.avgRefs                 31.976936                       # Average number of references to valid blocks. ((Count/Count))
system.l2cache.tags.warmupTick                      0                       # The tick when the warmup percentage was hit. (Tick)
system.l2cache.tags.occupancies::writebacks     0.003213                       # Average occupied blocks per tick, per requestor ((Count/Tick))
system.l2cache.tags.occupancies::cpu.inst     0.002286                       # Average occupied blocks per tick, per requestor ((Count/Tick))
system.l2cache.tags.occupancies::cpu.data  4095.994501                       # Average occupied blocks per tick, per requestor ((Count/Tick))
system.l2cache.tags.avgOccs::writebacks      0.000001                       # Average percentage of cache occupancy ((Ratio/Tick))
system.l2cache.tags.avgOccs::cpu.inst        0.000001                       # Average percentage of cache occupancy ((Ratio/Tick))
system.l2cache.tags.avgOccs::cpu.data        0.999999                       # Average percentage of cache occupancy ((Ratio/Tick))
system.l2cache.tags.avgOccs::total                  1                       # Average percentage of cache occupancy ((Ratio/Tick))
system.l2cache.tags.occupanciesTaskId::1024         4096                       # Occupied blocks per task id (Count)
system.l2cache.tags.ageTaskId_1024::0              21                       # Occupied blocks per task id, per block age (Count)
system.l2cache.tags.ageTaskId_1024::1             173                       # Occupied blocks per task id, per block age (Count)
system.l2cache.tags.ageTaskId_1024::2            1728                       # Occupied blocks per task id, per block age (Count)
system.l2cache.tags.ageTaskId_1024::3            2174                       # Occupied blocks per task id, per block age (Count)
system.l2cache.tags.ratioOccsTaskId::1024            1                       # Ratio of occupied blocks and all blocks, per task id (Ratio)
system.l2cache.tags.tagAccesses            2020671448                       # Number of tag accesses (Count)
system.l2cache.tags.dataAccesses           2020671448                       # Number of data accesses (Count)
system.l2cache.tags.power_state.pwrStateResidencyTicks::UNDEFINED 5131935088000                       # Cumulative time (in ticks) in various power states (Tick)
system.l3bus.transDist::ReadResp              5242902                       # Transaction distribution (Count)
system.l3bus.transDist::WritebackDirty        5286424                       # Transaction distribution (Count)
system.l3bus.transDist::CleanEvict           10442293                       # Transaction distribution (Count)
system.l3bus.transDist::ReadExReq             2621451                       # Transaction distribution (Count)
system.l3bus.transDist::ReadExResp            2621451                       # Transaction distribution (Count)
system.l3bus.transDist::ReadSharedReq         5242902                       # Transaction distribution (Count)
system.l3bus.pktCount_system.l2cache.mem_side_port::system.l3cache.cpu_side_port     23593063                       # Packet count per connected requestor and responder (Count)
system.l3bus.pktSize_system.l2cache.mem_side_port::system.l3cache.cpu_side_port    671255360                       # Cumulative packet size per connected requestor and responder (Byte)
system.l3bus.snoops                           7864360                       # Total snoops (Count)
system.l3bus.snoopTraffic                   170394368                       # Total snoop traffic (Byte)
system.l3bus.snoopFanout::samples            15728713                       # Request fanout histogram (Count)
system.l3bus.snoopFanout::mean               0.000000                       # Request fanout histogram (Count)
system.l3bus.snoopFanout::stdev              0.000618                       # Request fanout histogram (Count)
system.l3bus.snoopFanout::underflows                0      0.00%      0.00% # Request fanout histogram (Count)
system.l3bus.snoopFanout::0                  15728707    100.00%    100.00% # Request fanout histogram (Count)
system.l3bus.snoopFanout::1                         6      0.00%    100.00% # Request fanout histogram (Count)
system.l3bus.snoopFanout::overflows                 0      0.00%    100.00% # Request fanout histogram (Count)
system.l3bus.snoopFanout::min_value                 0                       # Request fanout histogram (Count)
system.l3bus.snoopFanout::max_value                 1                       # Request fanout histogram (Count)
system.l3bus.snoopFanout::total              15728713                       # Request fanout histogram (Count)
system.l3bus.power_state.pwrStateResidencyTicks::UNDEFINED 5131935088000                       # Cumulative time (in ticks) in various power states (Tick)
system.l3bus.reqLayer0.occupancy          20976734000                       # Layer occupancy (ticks) (Tick)
system.l3bus.reqLayer0.utilization                0.0                       # Layer utilization (Ratio)
system.l3bus.respLayer0.occupancy         23593059000                       # Layer occupancy (ticks) (Tick)
system.l3bus.respLayer0.utilization               0.0                       # Layer utilization (Ratio)
system.l3bus.snoop_filter.totRequests        15728710                       # Total number of requests made to the snoop filter. (Count)
system.l3bus.snoop_filter.hitSingleRequests      7864357                       # Number of requests hitting in the snoop filter with a single holder of the requested data. (Count)
system.l3bus.snoop_filter.hitMultiRequests            0                       # Number of requests hitting in the snoop filter with multiple (>1) holders of the requested data. (Count)
system.l3bus.snoop_filter.totSnoops                 6                       # Total number of snoops made to the snoop filter. (Count)
system.l3bus.snoop_filter.hitSingleSnoops            6                       # Number of snoops hitting in the snoop filter with a single holder of the requested data. (Count)
system.l3bus.snoop_filter.hitMultiSnoops            0                       # Number of snoops hitting in the snoop filter with multiple (>1) holders of the requested data. (Count)
system.l3cache.demandMisses::cpu.inst               2                       # number of demand (read+write) misses (Count)
system.l3cache.demandMisses::cpu.data         7864351                       # number of demand (read+write) misses (Count)
system.l3cache.demandMisses::total            7864353                       # number of demand (read+write) misses (Count)
system.l3cache.overallMisses::cpu.inst              2                       # number of overall misses (Count)
system.l3cache.overallMisses::cpu.data        7864351                       # number of overall misses (Count)
system.l3cache.overallMisses::total           7864353                       # number of overall misses (Count)
system.l3cache.demandMissLatency::cpu.inst       174000                       # number of demand (read+write) miss ticks (Tick)
system.l3cache.demandMissLatency::cpu.data 857255630000                       # number of demand (read+write) miss ticks (Tick)
system.l3cache.demandMissLatency::total  857255804000                       # number of demand (read+write) miss ticks (Tick)
system.l3cache.overallMissLatency::cpu.inst       174000                       # number of overall miss ticks (Tick)
system.l3cache.overallMissLatency::cpu.data 857255630000                       # number of overall miss ticks (Tick)
system.l3cache.overallMissLatency::total 857255804000                       # number of overall miss ticks (Tick)
system.l3cache.demandAccesses::cpu.inst             2                       # number of demand (read+write) accesses (Count)
system.l3cache.demandAccesses::cpu.data       7864351                       # number of demand (read+write) accesses (Count)
system.l3cache.demandAccesses::total          7864353                       # number of demand (read+write) accesses (Count)
system.l3cache.overallAccesses::cpu.inst            2                       # number of overall (read+write) accesses (Count)
system.l3cache.overallAccesses::cpu.data      7864351                       # number of overall (read+write) accesses (Count)
system.l3cache.overallAccesses::total         7864353                       # number of overall (read+write) accesses (Count)
system.l3cache.demandMissRate::cpu.inst             1                       # miss rate for demand accesses (Ratio)
system.l3cache.demandMissRate::cpu.data             1                       # miss rate for demand accesses (Ratio)
system.l3cache.demandMissRate::total                1                       # miss rate for demand accesses (Ratio)
system.l3cache.overallMissRate::cpu.inst            1                       # miss rate for overall accesses (Ratio)
system.l3cache.overallMissRate::cpu.data            1                       # miss rate for overall accesses (Ratio)
system.l3cache.overallMissRate::total               1                       # miss rate for overall accesses (Ratio)
system.l3cache.demandAvgMissLatency::cpu.inst        87000                       # average overall miss latency in ticks ((Tick/Count))
system.l3cache.demandAvgMissLatency::cpu.data 109005.260574                       # average overall miss latency in ticks ((Tick/Count))
system.l3cache.demandAvgMissLatency::total 109005.254978                       # average overall miss latency in ticks ((Tick/Count))
system.l3cache.overallAvgMissLatency::cpu.inst        87000                       # average overall miss latency ((Tick/Count))
system.l3cache.overallAvgMissLatency::cpu.data 109005.260574                       # average overall miss latency ((Tick/Count))
system.l3cache.overallAvgMissLatency::total 109005.254978                       # average overall miss latency ((Tick/Count))
system.l3cache.blockedCycles::no_mshrs              0                       # number of cycles access was blocked (Cycle)
system.l3cache.blockedCycles::no_targets            0                       # number of cycles access was blocked (Cycle)
system.l3cache.blockedCauses::no_mshrs              0                       # number of times access was blocked (Count)
system.l3cache.blockedCauses::no_targets            0                       # number of times access was blocked (Count)
system.l3cache.avgBlocked::no_mshrs               nan                       # average number of cycles each access was blocked ((Cycle/Count))
system.l3cache.avgBlocked::no_targets             nan                       # average number of cycles each access was blocked ((Cycle/Count))
system.l3cache.writebacks::writebacks         2662412                       # number of writebacks (Count)
system.l3cache.writebacks::total              2662412                       # number of writebacks (Count)
system.l3cache.demandMshrMisses::cpu.inst            2                       # number of demand (read+write) MSHR misses (Count)
system.l3cache.demandMshrMisses::cpu.data      7864351                       # number of demand (read+write) MSHR misses (Count)
system.l3cache.demandMshrMisses::total        7864353                       # number of demand (read+write) MSHR misses (Count)
system.l3cache.overallMshrMisses::cpu.inst            2                       # number of overall MSHR misses (Count)
system.l3cache.overallMshrMisses::cpu.data      7864351                       # number of overall MSHR misses (Count)
system.l3cache.overallMshrMisses::total       7864353                       # number of overall MSHR misses (Count)
system.l3cache.demandMshrMissLatency::cpu.inst       134000                       # number of demand (read+write) MSHR miss ticks (Tick)
system.l3cache.demandMshrMissLatency::cpu.data 699968610000                       # number of demand (read+write) MSHR miss ticks (Tick)
system.l3cache.demandMshrMissLatency::total 699968744000                       # number of demand (read+write) MSHR miss ticks (Tick)
system.l3cache.overallMshrMissLatency::cpu.inst       134000                       # number of overall MSHR miss ticks (Tick)
system.l3cache.overallMshrMissLatency::cpu.data 699968610000                       # number of overall MSHR miss ticks (Tick)
system.l3cache.overallMshrMissLatency::total 699968744000                       # number of overall MSHR miss ticks (Tick)
system.l3cache.demandMshrMissRate::cpu.inst            1                       # mshr miss ratio for demand accesses (Ratio)
system.l3cache.demandMshrMissRate::cpu.data            1                       # mshr miss ratio for demand accesses (Ratio)
system.l3cache.demandMshrMissRate::total            1                       # mshr miss ratio for demand accesses (Ratio)
system.l3cache.overallMshrMissRate::cpu.inst            1                       # mshr miss ratio for overall accesses (Ratio)
system.l3cache.overallMshrMissRate::cpu.data            1                       # mshr miss ratio for overall accesses (Ratio)
system.l3cache.overallMshrMissRate::total            1                       # mshr miss ratio for overall accesses (Ratio)
system.l3cache.demandAvgMshrMissLatency::cpu.inst        67000                       # average overall mshr miss latency ((Tick/Count))
system.l3cache.demandAvgMshrMissLatency::cpu.data 89005.260574                       # average overall mshr miss latency ((Tick/Count))
system.l3cache.demandAvgMshrMissLatency::total 89005.254978                       # average overall mshr miss latency ((Tick/Count))
system.l3cache.overallAvgMshrMissLatency::cpu.inst        67000                       # average overall mshr miss latency ((Tick/Count))
system.l3cache.overallAvgMshrMissLatency::cpu.data 89005.260574                       # average overall mshr miss latency ((Tick/Count))
system.l3cache.overallAvgMshrMissLatency::total 89005.254978                       # average overall mshr miss latency ((Tick/Count))
system.l3cache.replacements                   7864360                       # number of replacements (Count)
system.l3cache.CleanEvict.mshrMisses::writebacks            3                       # number of CleanEvict MSHR misses (Count)
system.l3cache.CleanEvict.mshrMisses::total            3                       # number of CleanEvict MSHR misses (Count)
system.l3cache.CleanEvict.mshrMissRate::writebacks          inf                       # mshr miss rate for CleanEvict accesses (Ratio)
system.l3cache.CleanEvict.mshrMissRate::total          inf                       # mshr miss rate for CleanEvict accesses (Ratio)
system.l3cache.ReadExReq.misses::cpu.data      2621451                       # number of ReadExReq misses (Count)
system.l3cache.ReadExReq.misses::total        2621451                       # number of ReadExReq misses (Count)
system.l3cache.ReadExReq.missLatency::cpu.data 296005460000                       # number of ReadExReq miss ticks (Tick)
system.l3cache.ReadExReq.missLatency::total 296005460000                       # number of ReadExReq miss ticks (Tick)
system.l3cache.ReadExReq.accesses::cpu.data      2621451                       # number of ReadExReq accesses(hits+misses) (Count)
system.l3cache.ReadExReq.accesses::total      2621451                       # number of ReadExReq accesses(hits+misses) (Count)
system.l3cache.ReadExReq.missRate::cpu.data            1                       # miss rate for ReadExReq accesses (Ratio)
system.l3cache.ReadExReq.missRate::total            1                       # miss rate for ReadExReq accesses (Ratio)
system.l3cache.ReadExReq.avgMissLatency::cpu.data 112916.648070                       # average ReadExReq miss latency ((Tick/Count))
system.l3cache.ReadExReq.avgMissLatency::total 112916.648070                       # average ReadExReq miss latency ((Tick/Count))
system.l3cache.ReadExReq.mshrMisses::cpu.data      2621451                       # number of ReadExReq MSHR misses (Count)
system.l3cache.ReadExReq.mshrMisses::total      2621451                       # number of ReadExReq MSHR misses (Count)
system.l3cache.ReadExReq.mshrMissLatency::cpu.data 243576440000                       # number of ReadExReq MSHR miss ticks (Tick)
system.l3cache.ReadExReq.mshrMissLatency::total 243576440000                       # number of ReadExReq MSHR miss ticks (Tick)
system.l3cache.ReadExReq.mshrMissRate::cpu.data            1                       # mshr miss rate for ReadExReq accesses (Ratio)
system.l3cache.ReadExReq.mshrMissRate::total            1                       # mshr miss rate for ReadExReq accesses (Ratio)
system.l3cache.ReadExReq.avgMshrMissLatency::cpu.data 92916.648070                       # average ReadExReq mshr miss latency ((Tick/Count))
system.l3cache.ReadExReq.avgMshrMissLatency::total 92916.648070                       # average ReadExReq mshr miss latency ((Tick/Count))
system.l3cache.ReadSharedReq.misses::cpu.inst            2                       # number of ReadSharedReq misses (Count)
system.l3cache.ReadSharedReq.misses::cpu.data      5242900                       # number of ReadSharedReq misses (Count)
system.l3cache.ReadSharedReq.misses::total      5242902                       # number of ReadSharedReq misses (Count)
system.l3cache.ReadSharedReq.missLatency::cpu.inst       174000                       # number of ReadSharedReq miss ticks (Tick)
system.l3cache.ReadSharedReq.missLatency::cpu.data 561250170000                       # number of ReadSharedReq miss ticks (Tick)
system.l3cache.ReadSharedReq.missLatency::total 561250344000                       # number of ReadSharedReq miss ticks (Tick)
system.l3cache.ReadSharedReq.accesses::cpu.inst            2                       # number of ReadSharedReq accesses(hits+misses) (Count)
system.l3cache.ReadSharedReq.accesses::cpu.data      5242900                       # number of ReadSharedReq accesses(hits+misses) (Count)
system.l3cache.ReadSharedReq.accesses::total      5242902                       # number of ReadSharedReq accesses(hits+misses) (Count)
system.l3cache.ReadSharedReq.missRate::cpu.inst            1                       # miss rate for ReadSharedReq accesses (Ratio)
system.l3cache.ReadSharedReq.missRate::cpu.data            1                       # miss rate for ReadSharedReq accesses (Ratio)
system.l3cache.ReadSharedReq.missRate::total            1                       # miss rate for ReadSharedReq accesses (Ratio)
system.l3cache.ReadSharedReq.avgMissLatency::cpu.inst        87000                       # average ReadSharedReq miss latency ((Tick/Count))
system.l3cache.ReadSharedReq.avgMissLatency::cpu.data 107049.566080                       # average ReadSharedReq miss latency ((Tick/Count))
system.l3cache.ReadSharedReq.avgMissLatency::total 107049.558432                       # average ReadSharedReq miss latency ((Tick/Count))
system.l3cache.ReadSharedReq.mshrMisses::cpu.inst            2                       # number of ReadSharedReq MSHR misses (Count)
[...]
system.mem_ctrl.dram.bytesWritten::total    170394688                       # Number of bytes written to this memory (Byte)
system.mem_ctrl.dram.numReads::cpu.inst           226                       # Number of read requests responded to by this memory (Count)
system.mem_ctrl.dram.numReads::cpu.data       7864425                       # Number of read requests responded to by this memory (Count)
system.mem_ctrl.dram.numReads::total          7864651                       # Number of read requests responded to by this memory (Count)
system.mem_ctrl.dram.numWrites::writebacks      2662417                       # Number of write requests responded to by this memory (Count)
system.mem_ctrl.dram.numWrites::total         2662417                       # Number of write requests responded to by this memory (Count)
system.mem_ctrl.dram.bwRead::cpu.inst            3533                       # Total read bandwidth from this memory ((Byte/Second))
system.mem_ctrl.dram.bwRead::cpu.data       122926638                       # Total read bandwidth from this memory ((Byte/Second))
system.mem_ctrl.dram.bwRead::total          122930171                       # Total read bandwidth from this memory ((Byte/Second))
system.mem_ctrl.dram.bwInstRead::cpu.inst         3533                       # Instruction read bandwidth from this memory ((Byte/Second))
system.mem_ctrl.dram.bwInstRead::total           3533                       # Instruction read bandwidth from this memory ((Byte/Second))
system.mem_ctrl.dram.bwWrite::writebacks     41615499                       # Write bandwidth from this memory ((Byte/Second))
system.mem_ctrl.dram.bwWrite::total          41615499                       # Write bandwidth from this memory ((Byte/Second))
system.mem_ctrl.dram.bwTotal::writebacks     41615499                       # Total bandwidth to/from this memory ((Byte/Second))
system.mem_ctrl.dram.bwTotal::cpu.inst           3533                       # Total bandwidth to/from this memory ((Byte/Second))
system.mem_ctrl.dram.bwTotal::cpu.data      122926638                       # Total bandwidth to/from this memory ((Byte/Second))
system.mem_ctrl.dram.bwTotal::total         164545670                       # Total bandwidth to/from this memory ((Byte/Second))
system.mem_ctrl.dram.readBursts               7864651                       # Number of DRAM read bursts (Count)
system.mem_ctrl.dram.writeBursts              2662421                       # Number of DRAM write bursts (Count)
system.mem_ctrl.dram.perBankRdBursts::0        491529                       # Per bank write bursts (Count)
system.mem_ctrl.dram.perBankRdBursts::1        491526                       # Per bank write bursts (Count)
system.mem_ctrl.dram.perBankRdBursts::2        491528                       # Per bank write bursts (Count)
system.mem_ctrl.dram.perBankRdBursts::3        491526                       # Per bank write bursts (Count)
system.mem_ctrl.dram.perBankRdBursts::4        491520                       # Per bank write bursts (Count)
system.mem_ctrl.dram.perBankRdBursts::5        491521                       # Per bank write bursts (Count)
system.mem_ctrl.dram.perBankRdBursts::6        491530                       # Per bank write bursts (Count)
system.mem_ctrl.dram.perBankRdBursts::7        491536                       # Per bank write bursts (Count)
system.mem_ctrl.dram.perBankRdBursts::8        491526                       # Per bank write bursts (Count)
system.mem_ctrl.dram.perBankRdBursts::9        491556                       # Per bank write bursts (Count)
system.mem_ctrl.dram.perBankRdBursts::10       491545                       # Per bank write bursts (Count)
system.mem_ctrl.dram.perBankRdBursts::11       492201                       # Per bank write bursts (Count)
system.mem_ctrl.dram.perBankRdBursts::12       490938                       # Per bank write bursts (Count)
system.mem_ctrl.dram.perBankRdBursts::13       491610                       # Per bank write bursts (Count)
system.mem_ctrl.dram.perBankRdBursts::14       491535                       # Per bank write bursts (Count)
system.mem_ctrl.dram.perBankRdBursts::15       491524                       # Per bank write bursts (Count)
system.mem_ctrl.dram.perBankWrBursts::0        166400                       # Per bank write bursts (Count)
system.mem_ctrl.dram.perBankWrBursts::1        166400                       # Per bank write bursts (Count)
system.mem_ctrl.dram.perBankWrBursts::2        166400                       # Per bank write bursts (Count)
system.mem_ctrl.dram.perBankWrBursts::3        166400                       # Per bank write bursts (Count)
system.mem_ctrl.dram.perBankWrBursts::4        166400                       # Per bank write bursts (Count)
system.mem_ctrl.dram.perBankWrBursts::5        166400                       # Per bank write bursts (Count)
system.mem_ctrl.dram.perBankWrBursts::6        166400                       # Per bank write bursts (Count)
system.mem_ctrl.dram.perBankWrBursts::7        166403                       # Per bank write bursts (Count)
system.mem_ctrl.dram.perBankWrBursts::8        166402                       # Per bank write bursts (Count)
system.mem_ctrl.dram.perBankWrBursts::9        166402                       # Per bank write bursts (Count)
system.mem_ctrl.dram.perBankWrBursts::10       166400                       # Per bank write bursts (Count)
system.mem_ctrl.dram.perBankWrBursts::11       166400                       # Per bank write bursts (Count)
system.mem_ctrl.dram.perBankWrBursts::12       166414                       # Per bank write bursts (Count)
system.mem_ctrl.dram.perBankWrBursts::13       166400                       # Per bank write bursts (Count)
system.mem_ctrl.dram.perBankWrBursts::14       166400                       # Per bank write bursts (Count)
system.mem_ctrl.dram.perBankWrBursts::15       166400                       # Per bank write bursts (Count)
system.mem_ctrl.dram.totQLat             224370259250                       # Total ticks spent queuing (Tick)
system.mem_ctrl.dram.totBusLat            39323255000                       # Total ticks spent in databus transfers (Tick)
system.mem_ctrl.dram.totMemAccLat        371832465500                       # Total ticks spent from burst creation until serviced by the DRAM (Tick)
system.mem_ctrl.dram.avgQLat                 28528.95                       # Average queueing delay per DRAM burst ((Tick/Count))
system.mem_ctrl.dram.avgBusLat                5000.00                       # Average bus latency per DRAM burst ((Tick/Count))
system.mem_ctrl.dram.avgMemAccLat            47278.95                       # Average memory access latency per DRAM burst ((Tick/Count))
system.mem_ctrl.dram.readRowHits                 1920                       # Number of row buffer hits during reads (Count)
system.mem_ctrl.dram.writeRowHits             2474847                       # Number of row buffer hits during writes (Count)
system.mem_ctrl.dram.readRowHitRate              0.02                       # Row buffer hit rate for reads (Ratio)
system.mem_ctrl.dram.writeRowHitRate            92.95                       # Row buffer hit rate for writes (Ratio)
system.mem_ctrl.dram.bytesPerActivate::samples      8050302                       # Bytes accessed per row activation (Byte)
system.mem_ctrl.dram.bytesPerActivate::mean    83.690312                       # Bytes accessed per row activation (Byte)
system.mem_ctrl.dram.bytesPerActivate::gmean    67.907328                       # Bytes accessed per row activation (Byte)
system.mem_ctrl.dram.bytesPerActivate::stdev   133.855725                       # Bytes accessed per row activation (Byte)
system.mem_ctrl.dram.bytesPerActivate::0-127      7866681     97.72%     97.72% # Bytes accessed per row activation (Byte)
system.mem_ctrl.dram.bytesPerActivate::128-255        11119      0.14%     97.86% # Bytes accessed per row activation (Byte)
system.mem_ctrl.dram.bytesPerActivate::256-383         4253      0.05%     97.91% # Bytes accessed per row activation (Byte)
system.mem_ctrl.dram.bytesPerActivate::384-511         2055      0.03%     97.94% # Bytes accessed per row activation (Byte)
system.mem_ctrl.dram.bytesPerActivate::512-639          160      0.00%     97.94% # Bytes accessed per row activation (Byte)
system.mem_ctrl.dram.bytesPerActivate::640-767         4041      0.05%     97.99% # Bytes accessed per row activation (Byte)
system.mem_ctrl.dram.bytesPerActivate::768-895         6297      0.08%     98.07% # Bytes accessed per row activation (Byte)
system.mem_ctrl.dram.bytesPerActivate::896-1023        10742      0.13%     98.20% # Bytes accessed per row activation (Byte)
system.mem_ctrl.dram.bytesPerActivate::1024-1151       144954      1.80%    100.00% # Bytes accessed per row activation (Byte)
system.mem_ctrl.dram.bytesPerActivate::total      8050302                       # Bytes accessed per row activation (Byte)
system.mem_ctrl.dram.bytesRead              503337664                       # Total bytes read (Byte)
system.mem_ctrl.dram.bytesWritten           170394944                       # Total bytes written (Byte)
system.mem_ctrl.dram.avgRdBW               122.930171                       # Average DRAM read bandwidth in MiBytes/s ((Byte/Second))
system.mem_ctrl.dram.avgWrBW                41.615562                       # Average DRAM write bandwidth in MiBytes/s ((Byte/Second))
system.mem_ctrl.dram.peakBW                  12800.00                       # Theoretical peak bandwidth in MiByte/s ((Byte/Second))
system.mem_ctrl.dram.busUtil                     1.29                       # Data bus utilization in percentage (Ratio)
system.mem_ctrl.dram.busUtilRead                 0.96                       # Data bus utilization in percentage for reads (Ratio)
system.mem_ctrl.dram.busUtilWrite                0.33                       # Data bus utilization in percentage for writes (Ratio)
system.mem_ctrl.dram.pageHitRate                23.53                       # Row buffer hit rate, read and write combined (Ratio)
system.mem_ctrl.dram.power_state.pwrStateResidencyTicks::UNDEFINED 5131983465000                       # Cumulative time (in ticks) in various power states (Tick)
system.mem_ctrl.dram.rank0.actEnergy      28745261580                       # Energy for activate commands per rank (pJ) (Joule)
system.mem_ctrl.dram.rank0.preEnergy      15278457480                       # Energy for precharge commands per rank (pJ) (Joule)
system.mem_ctrl.dram.rank0.readEnergy     28076043660                       # Energy for read commands per rank (pJ) (Joule)
system.mem_ctrl.dram.rank0.writeEnergy     6948879660                       # Energy for write commands per rank (pJ) (Joule)
system.mem_ctrl.dram.rank0.refreshEnergy 323216434320.000061                       # Energy for refresh commands per rank (pJ) (Joule)
system.mem_ctrl.dram.rank0.actBackEnergy 883277167050                       # Energy for active background per rank (pJ) (Joule)
system.mem_ctrl.dram.rank0.preBackEnergy 828476085120                       # Energy for precharge background per rank (pJ) (Joule)
system.mem_ctrl.dram.rank0.actPowerDownEnergy            0                       # Energy for active power-down per rank (pJ) (Joule)
system.mem_ctrl.dram.rank0.prePowerDownEnergy            0                       # Energy for precharge power-down per rank (pJ) (Joule)
system.mem_ctrl.dram.rank0.selfRefreshEnergy            0                       # Energy for self refresh per rank (pJ) (Joule)
system.mem_ctrl.dram.rank0.totalEnergy   2114018328870                       # Total energy per rank (pJ) (Joule)
system.mem_ctrl.dram.rank0.averagePower    516.306751                       # Core power per rank (mW) (Watt)
system.mem_ctrl.dram.rank0.totalIdleTime            0                       # Total Idle time Per DRAM Rank (Tick)
system.mem_ctrl.dram.rank0.pwrStateTime::IDLE 2096691450500                       # Time in different power states (Tick)
system.mem_ctrl.dram.rank0.pwrStateTime::REF 136724380000                       # Time in different power states (Tick)
system.mem_ctrl.dram.rank0.pwrStateTime::SREF            0                       # Time in different power states (Tick)
system.mem_ctrl.dram.rank0.pwrStateTime::PRE_PDN            0                       # Time in different power states (Tick)
system.mem_ctrl.dram.rank0.pwrStateTime::ACT 1861085306500                       # Time in different power states (Tick)
system.mem_ctrl.dram.rank0.pwrStateTime::ACT_PDN            0                       # Time in different power states (Tick)
system.mem_ctrl.dram.rank1.actEnergy      28733944680                       # Energy for activate commands per rank (pJ) (Joule)
system.mem_ctrl.dram.rank1.preEnergy      15272438610                       # Energy for precharge commands per rank (pJ) (Joule)
system.mem_ctrl.dram.rank1.readEnergy     28077614460                       # Energy for read commands per rank (pJ) (Joule)
system.mem_ctrl.dram.rank1.writeEnergy     6948957960                       # Energy for write commands per rank (pJ) (Joule)
system.mem_ctrl.dram.rank1.refreshEnergy 323216434320.000061                       # Energy for refresh commands per rank (pJ) (Joule)
system.mem_ctrl.dram.rank1.actBackEnergy 883064633430                       # Energy for active background per rank (pJ) (Joule)
system.mem_ctrl.dram.rank1.preBackEnergy 828656049120                       # Energy for precharge background per rank (pJ) (Joule)
system.mem_ctrl.dram.rank1.actPowerDownEnergy            0                       # Energy for active power-down per rank (pJ) (Joule)
system.mem_ctrl.dram.rank1.prePowerDownEnergy            0                       # Energy for precharge power-down per rank (pJ) (Joule)
system.mem_ctrl.dram.rank1.selfRefreshEnergy            0                       # Energy for self refresh per rank (pJ) (Joule)
system.mem_ctrl.dram.rank1.totalEnergy   2113970072580                       # Total energy per rank (pJ) (Joule)
system.mem_ctrl.dram.rank1.averagePower    516.294965                       # Core power per rank (mW) (Watt)
system.mem_ctrl.dram.rank1.totalIdleTime            0                       # Total Idle time Per DRAM Rank (Tick)
system.mem_ctrl.dram.rank1.pwrStateTime::IDLE 2097185415500                       # Time in different power states (Tick)
system.mem_ctrl.dram.rank1.pwrStateTime::REF 136724380000                       # Time in different power states (Tick)
system.mem_ctrl.dram.rank1.pwrStateTime::SREF            0                       # Time in different power states (Tick)
system.mem_ctrl.dram.rank1.pwrStateTime::PRE_PDN            0                       # Time in different power states (Tick)
system.mem_ctrl.dram.rank1.pwrStateTime::ACT 1860593914500                       # Time in different power states (Tick)
system.mem_ctrl.dram.rank1.pwrStateTime::ACT_PDN            0                       # Time in different power states (Tick)
system.mem_ctrl.power_state.pwrStateResidencyTicks::UNDEFINED 5131983465000                       # Cumulative time (in ticks) in various power states (Tick)
system.membus.transDist::ReadResp             5243176                       # Transaction distribution (Count)
system.membus.transDist::WritebackDirty       2662417                       # Transaction distribution (Count)
system.membus.transDist::CleanEvict           5202406                       # Transaction distribution (Count)
system.membus.transDist::ReadExReq            2621475                       # Transaction distribution (Count)
system.membus.transDist::ReadExResp           2621475                       # Transaction distribution (Count)
system.membus.transDist::ReadSharedReq        5243176                       # Transaction distribution (Count)
system.membus.pktCount_system.l3cache.mem_side_port::system.mem_ctrl.port     23594125                       # Packet count per connected requestor and responder (Count)
system.membus.pktCount_system.l3cache.mem_side_port::total     23594125                       # Packet count per connected requestor and responder (Count)
system.membus.pktCount::total                23594125                       # Packet count per connected requestor and responder (Count)
system.membus.pktSize_system.l3cache.mem_side_port::system.mem_ctrl.port    673732352                       # Cumulative packet size per connected requestor and responder (Byte)
system.membus.pktSize_system.l3cache.mem_side_port::total    673732352                       # Cumulative packet size per connected requestor and responder (Byte)
system.membus.pktSize::total                673732352                       # Cumulative packet size per connected requestor and responder (Byte)
system.membus.snoops                                0                       # Total snoops (Count)
system.membus.snoopTraffic                          0                       # Total snoop traffic (Byte)
system.membus.snoopFanout::samples            7864651                       # Request fanout histogram (Count)
system.membus.snoopFanout::mean                     0                       # Request fanout histogram (Count)
system.membus.snoopFanout::stdev                    0                       # Request fanout histogram (Count)
system.membus.snoopFanout::underflows               0      0.00%      0.00% # Request fanout histogram (Count)
system.membus.snoopFanout::0                  7864651    100.00%    100.00% # Request fanout histogram (Count)
system.membus.snoopFanout::1                        0      0.00%    100.00% # Request fanout histogram (Count)
system.membus.snoopFanout::overflows                0      0.00%    100.00% # Request fanout histogram (Count)
system.membus.snoopFanout::min_value                0                       # Request fanout histogram (Count)
system.membus.snoopFanout::max_value                0                       # Request fanout histogram (Count)
system.membus.snoopFanout::total              7864651                       # Request fanout histogram (Count)
system.membus.power_state.pwrStateResidencyTicks::UNDEFINED 5131983465000                       # Cumulative time (in ticks) in various power states (Tick)
system.membus.reqLayer2.occupancy         26379142000                       # Layer occupancy (ticks) (Tick)
system.membus.reqLayer2.utilization               0.0                       # Layer utilization (Ratio)
system.membus.respLayer0.occupancy        45029607500                       # Layer occupancy (ticks) (Tick)
system.membus.respLayer0.utilization              0.0                       # Layer utilization (Ratio)
system.membus.snoop_filter.totRequests       15729474                       # Total number of requests made to the snoop filter. (Count)
system.membus.snoop_filter.hitSingleRequests      7864823                       # Number of requests hitting in the snoop filter with a single holder of the requested data. (Count)
system.membus.snoop_filter.hitMultiRequests            0                       # Number of requests hitting in the snoop filter with multiple (>1) holders of the requested data. (Count)
system.membus.snoop_filter.totSnoops                0                       # Total number of snoops made to the snoop filter. (Count)
system.membus.snoop_filter.hitSingleSnoops            0                       # Number of snoops hitting in the snoop filter with a single holder of the requested data. (Count)
system.membus.snoop_filter.hitMultiSnoops            0                       # Number of snoops hitting in the snoop filter with multiple (>1) holders of the requested data. (Count)
system.workload.inst.arm                            0                       # number of arm instructions executed (Count)
system.workload.inst.quiesce                        0                       # number of quiesce instructions executed (Count)

---------- End Simulation Statistics   ----------
