Global frequency set at 1000000000000 ticks per second
gem5 Simulator System.  https://www.gem5.org
gem5 is copyrighted software; use the --copyright option for details.

gem5 version 22.0.0.2
gem5 compiled Dec 23 2022 07:04:21
gem5 started Dec 23 2022 07:06:36
gem5 executing on v100-gpu-4, pid 21681
command line: build/X86/gem5.opt configs/learning_gem5/Toy/two_level.py configs/learning_gem5/Toy/add -n 10 -t 3

Beginning simulation!
Key: 176576 Value: 1
Key: 181184 Value: 0
Key: 181184 Value: 0
Key: 174656 Value: 1
Key: 176576 Value: 0
Key: 174912 Value: 1
Key: 181184 Value: 0
Key: 174656 Value: 0
Key: 176576 Value: 0
Key: 174848 Value: 1
Key: 174912 Value: 0
Key: 181184 Value: 0
Key: 174656 Value: 0
Key: 176576 Value: 0
Key: 176576 Value: 0
Key: 175360 Value: 0
Key: 174656 Value: 0
Key: 175616 Value: 1
Key: 174912 Value: 0
Key: 181184 Value: 0
Key: 174848 Value: 0
Key: 217536 Value: 1
Key: 222976 Value: 0
Key: 176576 Value: 0
Key: 175360 Value: 0
Key: 174656 Value: 0
Key: 175616 Value: 0
Key: 174912 Value: 0
Key: 181184 Value: 0
Key: 174848 Value: 0
Key: 217536 Value: 0
Key: 222976 Value: 0
Key: 176576 Value: 0
Key: 183104 Value: 1
Key: 175360 Value: 0
Key: 174656 Value: 0
Key: 175616 Value: 0
Key: 174912 Value: 0
Key: 181184 Value: 0
Key: 174848 Value: 0
Key: 217536 Value: 0
Key: 228608 Value: 1
Key: 222976 Value: 0
Key: 176576 Value: 0
Key: 183104 Value: 0
Key: 175360 Value: 0
Key: 174656 Value: 0
Key: 175616 Value: 0
Key: 174912 Value: 0
Key: 181184 Value: 0
Key: 174848 Value: 0
Key: 181184 Value: 0
Key: 174912 Value: 0
Key: 174656 Value: 0
Key: 175360 Value: 0
Key: 183104 Value: 0
Key: 217792 Value: 1
Key: 176576 Value: 0
Key: 222976 Value: 0
Key: 175616 Value: 0
Key: 228608 Value: 0
Key: 174848 Value: 0
Key: 217536 Value: 0
Key: 183168 Value: 0
Key: 181184 Value: 0
Key: 174912 Value: 0
Key: 174656 Value: 0
Key: 218048 Value: 1
Key: 175360 Value: 0
Key: 183104 Value: 0
Key: 217792 Value: 0
Key: 176576 Value: 0
Key: 222976 Value: 0
Key: 175616 Value: 0
Key: 228608 Value: 0
Key: 174848 Value: 0
Key: 217536 Value: 0
Key: 218112 Value: 0
Key: 218496 Value: 1
Key: 183168 Value: 0
Key: 181184 Value: 0
Key: 174912 Value: 0
Key: 174656 Value: 0
Key: 218048 Value: 0
Key: 175360 Value: 0
Key: 183104 Value: 0
Key: 217792 Value: 0
Key: 176576 Value: 0
Key: 222976 Value: 0
Key: 175616 Value: 0
Key: 228608 Value: 0
Key: 174848 Value: 0
Key: 217536 Value: 0
Key: 174464 Value: 1
Key: 182912 Value: 0
Key: 182784 Value: 0
Key: 218112 Value: 0
Key: 218496 Value: 0
Key: 183168 Value: 0
Key: 181184 Value: 0
Key: 174912 Value: 0
Key: 174656 Value: 0
Key: 218048 Value: 0
Key: 175360 Value: 0
Key: 183104 Value: 0
Key: 217792 Value: 0
Key: 176576 Value: 0
Key: 222976 Value: 0
Key: 182976 Value: 0
Key: 175616 Value: 0
Key: 228608 Value: 0
Key: 174848 Value: 0
Key: 217536 Value: 0
Key: 217920 Value: 1
Key: 182848 Value: 0
Key: 174464 Value: 0
Key: 182912 Value: 0
Key: 182784 Value: 0
Key: 218112 Value: 0
Key: 218496 Value: 0
Key: 183168 Value: 0
Key: 181184 Value: 0
Key: 174912 Value: 0
Key: 174656 Value: 0
Key: 218048 Value: 0
Key: 175360 Value: 0
Key: 183104 Value: 0
Key: 217792 Value: 0
Key: 176576 Value: 0
Key: 222976 Value: 0
Key: 182976 Value: 0
Key: 175616 Value: 0
Key: 228608 Value: 0
Key: 174848 Value: 0
Key: 217536 Value: 0
Key: 182656 Value: 0
Key: 217536 Value: 0
Key: 175616 Value: 0
Key: 182976 Value: 0
Key: 174848 Value: 0
Key: 222976 Value: 0
Key: 182592 Value: 0
Key: 176576 Value: 0
Key: 217792 Value: 0
Key: 183104 Value: 0
Key: 175360 Value: 0
Key: 218048 Value: 0
Key: 182720 Value: 0
Key: 174656 Value: 0
Key: 174912 Value: 0
Key: 181184 Value: 0
Key: 177152 Value: 1
Key: 183168 Value: 0
Key: 218496 Value: 0
Key: 218112 Value: 0
Key: 182784 Value: 0
Key: 182912 Value: 0
Key: 228608 Value: 0
Key: 174464 Value: 0
Key: 182848 Value: 0
Key: 217920 Value: 0
Key: 218368 Value: 1
Key: 182528 Value: 0
Key: 182464 Value: 0
Key: 182656 Value: 0
Key: 217536 Value: 0
Key: 175616 Value: 0
Key: 182976 Value: 0
Key: 174848 Value: 0
Key: 222976 Value: 0
Key: 182592 Value: 0
Key: 176576 Value: 0
Key: 217792 Value: 0
Key: 183104 Value: 0
Key: 175360 Value: 0
Key: 218048 Value: 0
Key: 182720 Value: 0
Key: 174656 Value: 0
Key: 174912 Value: 0
Key: 181184 Value: 0
Key: 177152 Value: 0
Key: 183168 Value: 0
Key: 218496 Value: 0
Key: 218112 Value: 0
Key: 182784 Value: 0
Key: 182912 Value: 0
Key: 228608 Value: 0
Key: 174464 Value: 0
Key: 182848 Value: 0
Key: 217920 Value: 0
Key: 218368 Value: 0
Key: 176512 Value: 1
Key: 182528 Value: 0
Key: 182464 Value: 0
Key: 182656 Value: 0
Key: 217536 Value: 0
Key: 175616 Value: 0
Key: 182976 Value: 0
Key: 174848 Value: 0
Key: 222976 Value: 0
Key: 182592 Value: 0
Key: 176576 Value: 0
Key: 217792 Value: 0
Key: 183104 Value: 0
Key: 175360 Value: 0
Key: 218048 Value: 0
Key: 182720 Value: 0
Key: 174656 Value: 0
Key: 174912 Value: 0
Key: 181184 Value: 0
Key: 177152 Value: 0
Key: 183168 Value: 0
Key: 218496 Value: 0
Key: 218112 Value: 0
Key: 182784 Value: 0
Key: 182912 Value: 0
Key: 228608 Value: 0
Key: 174464 Value: 0
Key: 182848 Value: 0
Key: 217920 Value: 0
Key: 177216 Value: 1
Key: 218368 Value: 0
Key: 176512 Value: 0
Key: 182528 Value: 0
Key: 182464 Value: 0
Key: 182656 Value: 0
Key: 217536 Value: 0
Key: 175616 Value: 0
Key: 182976 Value: 0
Key: 174848 Value: 0
Key: 222976 Value: 0
Key: 182592 Value: 0
Key: 176576 Value: 0
Key: 217792 Value: 0
Key: 183104 Value: 0
Key: 175360 Value: 0
Key: 218048 Value: 0
Key: 182720 Value: 0
Key: 174656 Value: 0
Key: 174912 Value: 0
Key: 181184 Value: 0
Key: 177152 Value: 0
Key: 183168 Value: 0
Key: 218496 Value: 0
Key: 218112 Value: 0
Key: 182784 Value: 0
Key: 182912 Value: 0
Key: 228608 Value: 0
Key: 174464 Value: 0
Key: 182848 Value: 0
Key: 217920 Value: 0
Key: 177216 Value: 0
Key: 218368 Value: 0
Key: 176512 Value: 0
Key: 182528 Value: 0
Key: 182464 Value: 0
Key: 182656 Value: 0
Key: 217536 Value: 0
Key: 175616 Value: 0
Key: 182976 Value: 0
Key: 174848 Value: 0
Key: 222976 Value: 0
Key: 182592 Value: 0
Key: 176576 Value: 0
Key: 217792 Value: 0
Key: 183104 Value: 0
Key: 175360 Value: 0
Key: 218048 Value: 0
Key: 182720 Value: 0
Key: 174656 Value: 0
Key: 174912 Value: 0
Key: 181184 Value: 0
Key: 171136 Value: 1
Key: 177152 Value: 0
Key: 183168 Value: 0
Key: 218496 Value: 0
Key: 218112 Value: 0
Key: 182784 Value: 0
Key: 182912 Value: 0
Key: 228608 Value: 0
Key: 174464 Value: 0
Key: 182848 Value: 0
Key: 217920 Value: 0
Key: 177216 Value: 0
Key: 218368 Value: 0
Key: 176512 Value: 0
Key: 182528 Value: 0
Key: 182464 Value: 0
Key: 182656 Value: 0
Key: 217536 Value: 0
Key: 175616 Value: 0
Key: 182976 Value: 0
Key: 174848 Value: 0
Key: 222976 Value: 0
Key: 182592 Value: 0
Key: 176576 Value: 1
Key: 217792 Value: 0
Key: 183104 Value: 0
Key: 175360 Value: 0
Key: 218048 Value: 0
Key: 182720 Value: 0
Key: 174656 Value: 0
Key: 174912 Value: 0
Key: 181184 Value: 0
Key: 171136 Value: 0
Key: 177152 Value: 0
Key: 183168 Value: 0
Key: 218496 Value: 0
Key: 218112 Value: 0
Key: 182784 Value: 0
Key: 182912 Value: 0
Key: 228608 Value: 0
Key: 174464 Value: 0
Key: 182848 Value: 0
Key: 217920 Value: 0
Key: 7872 Value: 1
Key: 177216 Value: 0
Key: 218368 Value: 0
Key: 176512 Value: 0
Key: 182528 Value: 0
Key: 182464 Value: 0
Key: 182656 Value: 0
Key: 217536 Value: 0
Key: 175616 Value: 0
Key: 182976 Value: 0
Key: 174848 Value: 0
Key: 222976 Value: 0
Key: 182592 Value: 0
Key: 176576 Value: 0
Key: 217792 Value: 0
Key: 183104 Value: 0
Key: 175360 Value: 0
Key: 218048 Value: 0
Key: 182720 Value: 0
Key: 174656 Value: 0
Key: 174912 Value: 0
Key: 181184 Value: 0
Key: 171136 Value: 0
Key: 177152 Value: 0
Key: 183168 Value: 0
Key: 218496 Value: 0
Key: 218112 Value: 0
Key: 182784 Value: 0
Key: 182912 Value: 0
Key: 228608 Value: 0
Key: 174464 Value: 0
Key: 182848 Value: 0
Key: 217920 Value: 0
Key: 217088 Value: 1
Key: 7872 Value: 0
Key: 177216 Value: 0
Key: 218368 Value: 0
Key: 176512 Value: 0
Key: 182528 Value: 0
Key: 182464 Value: 0
Key: 182656 Value: 0
Key: 217536 Value: 0
Key: 175616 Value: 0
Key: 182976 Value: 0
Key: 174848 Value: 0
Key: 222976 Value: 0
Key: 182592 Value: 0
Key: 176576 Value: 0
Key: 217792 Value: 0
Key: 183104 Value: 0
Key: 175360 Value: 0
Key: 218048 Value: 0
Key: 182720 Value: 0
Key: 174656 Value: 0
Key: 174912 Value: 0
Key: 181184 Value: 0
Key: 171136 Value: 0
Key: 177152 Value: 0
Key: 183168 Value: 0
Key: 218496 Value: 0
Key: 218112 Value: 0
Key: 182784 Value: 0
Key: 182912 Value: 0
Key: 228608 Value: 0
Key: 174464 Value: 0
Key: 182848 Value: 0
Key: 217920 Value: 0
Key: 217856 Value: 1
Key: 217088 Value: 0
Key: 7872 Value: 0
Key: 177216 Value: 0
Key: 218368 Value: 0
Key: 176512 Value: 0
Key: 182528 Value: 0
Key: 182464 Value: 0
Key: 182656 Value: 0
Key: 217536 Value: 0
Key: 175616 Value: 0
Key: 182976 Value: 0
Key: 174848 Value: 0
Key: 222976 Value: 0
Key: 182592 Value: 0
Key: 176576 Value: 0
Key: 217792 Value: 0
Key: 183104 Value: 0
Key: 175360 Value: 0
Key: 218048 Value: 0
Key: 182720 Value: 0
Key: 174656 Value: 0
Key: 174912 Value: 0
Key: 181184 Value: 0
Key: 171136 Value: 0
Key: 177152 Value: 0
Key: 183168 Value: 0
Key: 218496 Value: 0
Key: 218112 Value: 0
Key: 182784 Value: 0
Key: 182912 Value: 0
Key: 228608 Value: 0
Key: 174464 Value: 0
Key: 182848 Value: 0
Key: 217920 Value: 0
Key: 217152 Value: 1
Key: 217856 Value: 0
Key: 217088 Value: 0
Key: 7872 Value: 0
Key: 177216 Value: 0
Key: 218368 Value: 0
Key: 176512 Value: 0
Key: 182528 Value: 0
Key: 182464 Value: 0
Key: 182656 Value: 0
Key: 217536 Value: 0
Key: 175616 Value: 0
Key: 182976 Value: 0
Key: 174848 Value: 0
Key: 222976 Value: 0
Key: 182592 Value: 0
Key: 176576 Value: 0
Key: 217792 Value: 0
Key: 183104 Value: 0
Key: 175360 Value: 0
Key: 218048 Value: 0
Key: 182720 Value: 0
Key: 174656 Value: 0
Key: 174912 Value: 0
Key: 181184 Value: 0
Key: 171136 Value: 0
Key: 177152 Value: 0
Key: 183168 Value: 0
Key: 218496 Value: 0
Key: 218112 Value: 0
Key: 182784 Value: 0
Key: 182912 Value: 0
Key: 228608 Value: 0
Key: 174464 Value: 0
Key: 182848 Value: 0
Key: 217920 Value: 0
Key: 217152 Value: 0
Key: 217856 Value: 0
Key: 217088 Value: 0
Key: 7872 Value: 0
Key: 228352 Value: 1
Key: 177216 Value: 0
Key: 218368 Value: 0
Key: 176512 Value: 0
Key: 182528 Value: 0
Key: 182464 Value: 0
Key: 182656 Value: 0
Key: 217536 Value: 0
Key: 175616 Value: 0
Key: 182976 Value: 0
Key: 174848 Value: 0
Key: 222976 Value: 0
Key: 182592 Value: 0
Key: 176576 Value: 0
Key: 217792 Value: 0
Key: 183104 Value: 0
Key: 175360 Value: 0
Key: 218048 Value: 0
Key: 182720 Value: 0
Key: 174656 Value: 0
Key: 174912 Value: 0
Key: 181184 Value: 0
Key: 171136 Value: 0
Key: 177152 Value: 0
Key: 183168 Value: 0
Key: 218496 Value: 0
Key: 218112 Value: 0
Key: 182784 Value: 0
Key: 182912 Value: 0
Key: 228608 Value: 0
Key: 174464 Value: 0
Key: 182848 Value: 0
Key: 217920 Value: 0
Key: 218176 Value: 1
Key: 255936 Value: 0
Key: 217152 Value: 0
Key: 217856 Value: 0
Key: 217088 Value: 0
Key: 182336 Value: 0
Key: 7872 Value: 0
Key: 228352 Value: 0
Key: 177216 Value: 0
Key: 218368 Value: 0
Key: 176512 Value: 0
Key: 182528 Value: 0
Key: 182464 Value: 0
Key: 182656 Value: 0
Key: 217536 Value: 0
Key: 175616 Value: 0
Key: 182976 Value: 0
Key: 174848 Value: 0
Key: 222976 Value: 0
Key: 182592 Value: 0
Key: 176576 Value: 0
Key: 217792 Value: 0
Key: 183104 Value: 0
Key: 175360 Value: 0
Key: 218048 Value: 0
Key: 182720 Value: 0
Key: 174656 Value: 0
Key: 174912 Value: 0
Key: 181184 Value: 0
Key: 171136 Value: 0
Key: 177152 Value: 0
Key: 183168 Value: 0
Key: 182400 Value: 0
Key: 218496 Value: 0
Key: 218112 Value: 0
Key: 182784 Value: 0
Key: 182912 Value: 0
Key: 228608 Value: 0
Key: 174464 Value: 0
Key: 182848 Value: 0
Key: 217920 Value: 0
Key: 218176 Value: 0
Key: 255936 Value: 0
Key: 217152 Value: 0
Key: 217856 Value: 0
Key: 217088 Value: 0
Key: 182336 Value: 0
Key: 7872 Value: 0
Key: 171200 Value: 1
Key: 228352 Value: 0
Key: 177216 Value: 0
Key: 218368 Value: 0
Key: 176512 Value: 0
Key: 182528 Value: 0
Key: 182464 Value: 0
Key: 182656 Value: 0
Key: 217536 Value: 0
Key: 175616 Value: 0
Key: 182976 Value: 0
Key: 174848 Value: 0
Key: 222976 Value: 0
Key: 182592 Value: 0
Key: 176576 Value: 0
Key: 217792 Value: 0
Key: 183104 Value: 0
Key: 175360 Value: 0
Key: 218048 Value: 0
Key: 182720 Value: 0
Key: 174656 Value: 0
Key: 174912 Value: 0
Key: 181184 Value: 0
Key: 171136 Value: 0
Key: 177152 Value: 0
Key: 183168 Value: 0
Key: 182400 Value: 0
Key: 218496 Value: 0
Key: 218112 Value: 0
Key: 182784 Value: 0
Key: 182912 Value: 0
Key: 228608 Value: 0
Key: 174464 Value: 0
Key: 182848 Value: 0
Key: 217920 Value: 0
Key: 218176 Value: 0
Key: 255936 Value: 0
Key: 217152 Value: 0
Key: 217856 Value: 0
Key: 217088 Value: 0
Key: 182336 Value: 0
Key: 7872 Value: 0
Key: 171200 Value: 0
Key: 228352 Value: 0
Key: 177216 Value: 0
Key: 218368 Value: 0
Key: 176512 Value: 0
Key: 182528 Value: 0
Key: 182464 Value: 0
Key: 182656 Value: 0
Key: 217536 Value: 0
Key: 175616 Value: 0
Key: 219072 Value: 1
Key: 182976 Value: 0
Key: 174848 Value: 0
Key: 222976 Value: 0
Key: 182592 Value: 0
Key: 176576 Value: 0
Key: 217792 Value: 0
Key: 183104 Value: 0
Key: 175360 Value: 0
Key: 218048 Value: 0
Key: 182720 Value: 0
Key: 174656 Value: 0
Key: 174912 Value: 0
Key: 181184 Value: 0
Key: 171136 Value: 0
Key: 177152 Value: 0
Key: 183168 Value: 0
Key: 182400 Value: 0
Key: 218496 Value: 0
Key: 218112 Value: 0
Key: 182784 Value: 0
Key: 182912 Value: 0
Key: 228608 Value: 0
Key: 174464 Value: 0
Key: 182848 Value: 0
Key: 217920 Value: 0
Key: 218176 Value: 0
Key: 255936 Value: 0
Key: 217152 Value: 0
Key: 217856 Value: 0
Key: 217088 Value: 0
Key: 182336 Value: 0
Key: 7872 Value: 0
Key: 171200 Value: 0
Key: 228352 Value: 0
Key: 177216 Value: 0
Key: 218368 Value: 0
Key: 176512 Value: 0
Key: 182528 Value: 0
Key: 176448 Value: 1
Key: 182464 Value: 0
Key: 182656 Value: 0
Key: 217536 Value: 0
Key: 175616 Value: 0
Key: 219072 Value: 0
Key: 182976 Value: 0
Key: 174848 Value: 0
Key: 222976 Value: 0
Key: 182592 Value: 0
Key: 176576 Value: 0
Key: 217792 Value: 0
Key: 183104 Value: 0
Key: 175360 Value: 0
Key: 218048 Value: 0
Key: 182720 Value: 0
Key: 174656 Value: 0
Key: 174912 Value: 0
Key: 181184 Value: 0
Key: 171136 Value: 0
Key: 177152 Value: 0
Key: 183168 Value: 0
Key: 182400 Value: 0
Key: 218496 Value: 0
Key: 218112 Value: 0
Key: 182784 Value: 0
Key: 182912 Value: 0
Key: 228608 Value: 0
Key: 174464 Value: 0
Key: 182848 Value: 0
Key: 217920 Value: 0
Key: 218176 Value: 0
Key: 255936 Value: 0
Key: 217152 Value: 0
Key: 217856 Value: 0
Key: 217088 Value: 0
Key: 182336 Value: 0
Key: 7872 Value: 0
Key: 171200 Value: 0
Key: 228352 Value: 0
Key: 177216 Value: 0
Key: 218368 Value: 0
Key: 176512 Value: 0
Key: 182528 Value: 0
Key: 176448 Value: 0
Key: 182464 Value: 0
Key: 182656 Value: 0
Key: 217536 Value: 0
Key: 175616 Value: 0
Key: 219072 Value: 0
Key: 182976 Value: 0
Key: 177856 Value: 1
Key: 174848 Value: 0
Key: 222976 Value: 0
Key: 182592 Value: 0
Key: 176576 Value: 0
Key: 217792 Value: 0
Key: 183104 Value: 0
Key: 175360 Value: 0
Key: 218048 Value: 0
Key: 182720 Value: 0
Key: 174656 Value: 0
Key: 174912 Value: 0
Key: 181184 Value: 0
Key: 171136 Value: 0
Key: 177152 Value: 0
Key: 183168 Value: 0
Key: 182400 Value: 0
Key: 218496 Value: 0
Key: 218112 Value: 0
Key: 182784 Value: 0
Key: 182912 Value: 0
Key: 228608 Value: 0
Key: 174464 Value: 0
Key: 182848 Value: 0
Key: 217920 Value: 0
Key: 218176 Value: 0
Key: 255936 Value: 0
Key: 217152 Value: 0
Key: 217856 Value: 0
Key: 217088 Value: 0
Key: 182336 Value: 0
Key: 7872 Value: 0
Key: 171200 Value: 0
Key: 228352 Value: 0
Key: 177216 Value: 0
Key: 218368 Value: 0
Key: 176512 Value: 0
Key: 182528 Value: 0
Key: 179456 Value: 1
Key: 176448 Value: 0
Key: 182464 Value: 0
Key: 182656 Value: 0
Key: 217536 Value: 0
Key: 175616 Value: 0
Key: 219072 Value: 0
Key: 182976 Value: 0
Key: 177856 Value: 0
Key: 174848 Value: 0
Key: 222976 Value: 0
Key: 182592 Value: 0
Key: 176576 Value: 0
Key: 217792 Value: 0
Key: 183104 Value: 0
Key: 175360 Value: 0
Key: 218048 Value: 0
Key: 182720 Value: 0
Key: 174656 Value: 0
Key: 174912 Value: 0
Key: 181184 Value: 0
Key: 171136 Value: 0
Key: 177152 Value: 0
Key: 183168 Value: 0
Key: 182400 Value: 0
Key: 218496 Value: 0
Key: 218112 Value: 0
Key: 182784 Value: 0
Key: 182912 Value: 0
Key: 228608 Value: 0
Key: 174464 Value: 0
Key: 182848 Value: 0
Key: 217920 Value: 0
Key: 218240 Value: 1
Key: 218176 Value: 0
Key: 255936 Value: 0
Key: 217152 Value: 0
Key: 217856 Value: 0
Key: 217088 Value: 0
Key: 182336 Value: 0
Key: 7872 Value: 0
Key: 171200 Value: 0
Key: 228352 Value: 0
Key: 177216 Value: 0
Key: 218368 Value: 0
Key: 176512 Value: 0
Key: 182528 Value: 0
Key: 179456 Value: 0
Key: 176448 Value: 0
Key: 182464 Value: 0
Key: 182656 Value: 0
Key: 217536 Value: 0
Key: 175616 Value: 0
Key: 219072 Value: 0
Key: 182976 Value: 0
Key: 177856 Value: 0
Key: 174848 Value: 0
Key: 222976 Value: 0
Key: 182592 Value: 0
Key: 176576 Value: 0
Key: 217792 Value: 0
Key: 183104 Value: 0
Key: 175360 Value: 0
Key: 218048 Value: 0
Key: 182720 Value: 0
Key: 174656 Value: 0
Key: 174912 Value: 0
Key: 181184 Value: 0
Key: 171136 Value: 0
Key: 177152 Value: 0
Key: 183168 Value: 0
Key: 182400 Value: 0
Key: 218496 Value: 0
Key: 218112 Value: 0
Key: 182784 Value: 0
Key: 182912 Value: 0
Key: 228608 Value: 0
Key: 174464 Value: 0
Key: 182848 Value: 0
Key: 217920 Value: 0
Key: 182848 Value: 0
Key: 217920 Value: 0
Key: 174464 Value: 0
Key: 228608 Value: 0
Key: 182912 Value: 0
Key: 218496 Value: 0
Key: 182400 Value: 0
Key: 183168 Value: 0
Key: 177152 Value: 0
Key: 171136 Value: 0
Key: 181184 Value: 0
Key: 218112 Value: 0
Key: 174656 Value: 0
Key: 174592 Value: 1
Key: 218048 Value: 0
Key: 175360 Value: 0
Key: 183104 Value: 0
Key: 217792 Value: 0
Key: 182784 Value: 0
Key: 176576 Value: 0
Key: 182592 Value: 0
Key: 222976 Value: 0
Key: 174848 Value: 0
Key: 177856 Value: 0
Key: 182976 Value: 0
Key: 219072 Value: 0
Key: 175616 Value: 0
Key: 217536 Value: 0
Key: 182464 Value: 0
Key: 182656 Value: 0
Key: 176448 Value: 0
Key: 179456 Value: 0
Key: 182528 Value: 0
Key: 182720 Value: 0
Key: 176512 Value: 0
Key: 174912 Value: 0
Key: 218368 Value: 0
Key: 177216 Value: 0
Key: 228352 Value: 0
Key: 171200 Value: 0
Key: 7872 Value: 0
Key: 182336 Value: 0
Key: 217088 Value: 0
Key: 217856 Value: 0
Key: 217152 Value: 0
Key: 255936 Value: 0
Key: 218176 Value: 0
Key: 218240 Value: 0
Key: 175296 Value: 1
Key: 182848 Value: 0
Key: 217920 Value: 0
Key: 174464 Value: 0
Key: 228608 Value: 0
Key: 182912 Value: 0
Key: 218496 Value: 0
Key: 182400 Value: 0
Key: 183168 Value: 0
Key: 177152 Value: 0
Key: 171136 Value: 0
Key: 181184 Value: 0
Key: 218112 Value: 0
Key: 174656 Value: 0
Key: 174592 Value: 0
Key: 218048 Value: 0
Key: 175360 Value: 0
Key: 183104 Value: 0
Key: 217792 Value: 0
Key: 182784 Value: 0
Key: 176576 Value: 0
Key: 182592 Value: 0
Key: 222976 Value: 0
Key: 174848 Value: 0
Key: 177856 Value: 0
Key: 182976 Value: 0
Key: 219072 Value: 0
Key: 175616 Value: 0
Key: 217536 Value: 0
Key: 182464 Value: 0
Key: 182656 Value: 0
Key: 176448 Value: 0
Key: 179456 Value: 0
Key: 182528 Value: 0
Key: 182720 Value: 0
Key: 176512 Value: 0
Key: 174912 Value: 0
Key: 218368 Value: 0
Key: 177216 Value: 0
Key: 228352 Value: 0
Key: 171200 Value: 0
Key: 7872 Value: 0
Key: 182336 Value: 0
Key: 217088 Value: 0
Key: 217856 Value: 0
Key: 217152 Value: 0
Key: 255936 Value: 0
Key: 218176 Value: 0
Key: 218240 Value: 0
Key: 175296 Value: 0
Key: 182848 Value: 0
Key: 217920 Value: 0
Key: 174464 Value: 0
Key: 228608 Value: 0
Key: 182912 Value: 0
Key: 218496 Value: 0
Key: 182400 Value: 0
Key: 183168 Value: 0
Key: 177152 Value: 0
Key: 171136 Value: 0
Key: 181184 Value: 0
Key: 218112 Value: 0
Key: 174656 Value: 1
Key: 174592 Value: 0
Key: 218048 Value: 0
Key: 175360 Value: 0
Key: 183104 Value: 0
Key: 217792 Value: 0
Key: 182784 Value: 0
Key: 176576 Value: 0
Key: 182592 Value: 0
Key: 222976 Value: 0
Key: 174848 Value: 0
Key: 177856 Value: 0
Key: 182976 Value: 0
Key: 219072 Value: 0
Key: 175616 Value: 0
Key: 217536 Value: 0
Key: 182464 Value: 0
Key: 182656 Value: 0
Key: 176448 Value: 0
Key: 179456 Value: 0
Key: 182528 Value: 0
Key: 182720 Value: 0
Key: 176512 Value: 0
Key: 174912 Value: 0
Key: 218368 Value: 0
Key: 177216 Value: 0
Key: 228352 Value: 0
Key: 171200 Value: 0
Key: 7872 Value: 0
Key: 182336 Value: 0
Key: 217088 Value: 0
Key: 217856 Value: 0
Key: 217152 Value: 0
Key: 255936 Value: 0
Key: 218176 Value: 0
Key: 218240 Value: 0
Key: 171712 Value: 1
Key: 175296 Value: 0
Key: 182848 Value: 0
Key: 217920 Value: 0
Key: 174464 Value: 0
Key: 228608 Value: 0
Key: 182912 Value: 0
Key: 218496 Value: 0
Key: 182400 Value: 0
Key: 183168 Value: 0
Key: 177152 Value: 0
Key: 171136 Value: 0
Key: 181184 Value: 0
Key: 218112 Value: 0
Key: 174656 Value: 0
Key: 174592 Value: 0
Key: 218048 Value: 0
Key: 175360 Value: 0
Key: 183104 Value: 0
Key: 217792 Value: 0
Key: 182784 Value: 0
Key: 176576 Value: 0
Key: 182592 Value: 0
Key: 222976 Value: 0
Key: 174848 Value: 0
Key: 177856 Value: 0
Key: 182976 Value: 0
Key: 219072 Value: 0
Key: 175616 Value: 0
Key: 217536 Value: 0
Key: 182464 Value: 0
Key: 182656 Value: 0
Key: 176448 Value: 0
Key: 179456 Value: 0
Key: 182528 Value: 0
Key: 182720 Value: 0
Key: 176512 Value: 0
Key: 174912 Value: 0
Key: 218368 Value: 0
Key: 177216 Value: 0
Key: 228352 Value: 0
Key: 171200 Value: 0
Key: 7872 Value: 0
Key: 182336 Value: 0
Key: 217088 Value: 0
Key: 217856 Value: 0
Key: 217152 Value: 0
Key: 255936 Value: 0
Key: 218176 Value: 0
Key: 218240 Value: 0
Key: 171712 Value: 0
Key: 175296 Value: 0
Key: 182848 Value: 0
Key: 217920 Value: 0
Key: 174464 Value: 0
Key: 228608 Value: 0
Key: 182912 Value: 0
Key: 218496 Value: 0
Key: 182400 Value: 0
Key: 183168 Value: 0
Key: 177152 Value: 0
Key: 171136 Value: 0
Key: 181184 Value: 0
Key: 218112 Value: 0
Key: 174656 Value: 0
Key: 174592 Value: 0
Key: 218048 Value: 0
Key: 175360 Value: 0
Key: 183104 Value: 0
Key: 217792 Value: 0
Key: 182784 Value: 0
Key: 176576 Value: 0
Key: 182592 Value: 0
Key: 222976 Value: 0
Key: 174848 Value: 0
Key: 171648 Value: 1
Key: 177856 Value: 0
Key: 182976 Value: 0
Key: 219072 Value: 0
Key: 175616 Value: 0
Key: 217536 Value: 0
Key: 182464 Value: 0
Key: 182656 Value: 0
Key: 176448 Value: 0
Key: 179456 Value: 0
Key: 182528 Value: 0
Key: 182720 Value: 0
Key: 176512 Value: 0
Key: 174912 Value: 0
Key: 218368 Value: 0
Key: 177216 Value: 0
Key: 228352 Value: 0
Key: 171200 Value: 0
Key: 7872 Value: 0
Key: 182336 Value: 0
Key: 217088 Value: 0
Key: 217856 Value: 0
Key: 217152 Value: 0
Key: 255936 Value: 0
Key: 218176 Value: 0
Key: 218240 Value: 0
Key: 171712 Value: 0
Key: 175296 Value: 0
Key: 182848 Value: 0
Key: 217920 Value: 0
Key: 174464 Value: 0
Key: 228608 Value: 0
Key: 182912 Value: 0
Key: 218496 Value: 0
Key: 182400 Value: 0
Key: 183168 Value: 0
Key: 177152 Value: 0
Key: 171136 Value: 0
Key: 181184 Value: 0
Key: 218112 Value: 0
Key: 174656 Value: 0
Key: 174592 Value: 0
Key: 218048 Value: 0
Key: 175360 Value: 1
Key: 183104 Value: 0
Key: 217792 Value: 0
Key: 182784 Value: 0
Key: 176576 Value: 0
Key: 182592 Value: 0
Key: 222976 Value: 0
Key: 174848 Value: 0
Key: 171648 Value: 0
Key: 177856 Value: 0
Key: 182976 Value: 0
Key: 219072 Value: 0
Key: 175616 Value: 0
Key: 217536 Value: 0
Key: 182464 Value: 0
Key: 182656 Value: 0
Key: 176448 Value: 0
Key: 179456 Value: 0
Key: 182528 Value: 0
Key: 182720 Value: 0
Key: 176512 Value: 0
Key: 174912 Value: 0
Key: 218368 Value: 0
Key: 177216 Value: 0
Key: 228352 Value: 0
Key: 171200 Value: 0
Key: 7872 Value: 0
Key: 182336 Value: 0
Key: 217088 Value: 0
Key: 217856 Value: 0
Key: 217152 Value: 0
Key: 255936 Value: 0
Key: 218176 Value: 0
Key: 218240 Value: 0
Key: 171712 Value: 0
Key: 175296 Value: 0
Key: 182848 Value: 0
Key: 217920 Value: 0
Key: 174464 Value: 0
Key: 228608 Value: 0
Key: 182912 Value: 0
Key: 218496 Value: 0
Key: 182400 Value: 0
Key: 183168 Value: 0
Key: 177152 Value: 0
Key: 171136 Value: 0
Key: 181184 Value: 0
Key: 218112 Value: 0
Key: 174656 Value: 0
Key: 174592 Value: 0
Key: 218048 Value: 0
Key: 175360 Value: 0
Key: 183104 Value: 0
Key: 217792 Value: 0
Key: 182784 Value: 0
Key: 176576 Value: 0
Key: 182592 Value: 0
Key: 222976 Value: 0
Key: 174848 Value: 0
Key: 171648 Value: 0
Key: 177856 Value: 0
Key: 182976 Value: 0
Key: 219072 Value: 0
Key: 175616 Value: 0
Key: 217536 Value: 0
Key: 182464 Value: 0
Key: 182656 Value: 0
Key: 176448 Value: 0
Key: 179456 Value: 0
Key: 182528 Value: 0
Key: 182720 Value: 0
Key: 176512 Value: 0
Key: 174912 Value: 0
Key: 218368 Value: 0
Key: 177216 Value: 0
Key: 228352 Value: 0
Key: 171200 Value: 0
Key: 7872 Value: 0
Key: 182336 Value: 0
Key: 217088 Value: 0
Key: 217856 Value: 0
Key: 217152 Value: 0
Key: 175232 Value: 1
Key: 255936 Value: 0
Key: 218176 Value: 0
Key: 218240 Value: 0
Key: 219264 Value: 1
Key: 171712 Value: 0
Key: 175296 Value: 0
Key: 182848 Value: 0
Key: 217920 Value: 0
Key: 174464 Value: 0
Key: 228608 Value: 0
Key: 182912 Value: 0
Key: 218496 Value: 0
Key: 182400 Value: 0
Key: 183168 Value: 0
Key: 177152 Value: 0
Key: 171136 Value: 0
Key: 181184 Value: 0
Key: 218112 Value: 0
Key: 174656 Value: 0
Key: 174592 Value: 0
Key: 218048 Value: 0
Key: 175360 Value: 0
Key: 183104 Value: 0
Key: 217792 Value: 0
Key: 182784 Value: 0
Key: 176576 Value: 0
Key: 182592 Value: 0
Key: 222976 Value: 0
Key: 174848 Value: 0
Key: 171648 Value: 0
Key: 177856 Value: 0
Key: 182976 Value: 0
Key: 219072 Value: 0
Key: 175616 Value: 0
Key: 217536 Value: 0
Key: 182464 Value: 0
Key: 182656 Value: 0
Key: 176448 Value: 0
Key: 179456 Value: 0
Key: 182528 Value: 0
Key: 182720 Value: 0
Key: 176512 Value: 0
Key: 174912 Value: 0
Key: 218368 Value: 0
Key: 177216 Value: 0
Key: 228352 Value: 0
Key: 171200 Value: 0
Key: 7872 Value: 0
Key: 182336 Value: 0
Key: 217088 Value: 0
Key: 217856 Value: 0
Key: 217152 Value: 0
Key: 175232 Value: 0
Key: 255936 Value: 0
Key: 218176 Value: 0
Key: 218240 Value: 0
Key: 174528 Value: 1
Key: 219264 Value: 0
Key: 171712 Value: 0
Key: 175296 Value: 0
Key: 182848 Value: 0
Key: 217920 Value: 0
Key: 174464 Value: 0
Key: 228608 Value: 0
Key: 182912 Value: 0
Key: 218496 Value: 0
Key: 182400 Value: 0
Key: 183168 Value: 0
Key: 177152 Value: 0
Key: 171136 Value: 0
Key: 181184 Value: 0
Key: 218112 Value: 0
Key: 174656 Value: 0
Key: 174592 Value: 0
Key: 218048 Value: 0
Key: 175360 Value: 0
Key: 183104 Value: 0
Key: 217792 Value: 0
Key: 182784 Value: 0
Key: 176576 Value: 0
Key: 182592 Value: 0
Key: 222976 Value: 0
Key: 174848 Value: 0
Key: 171648 Value: 0
Key: 177856 Value: 0
Key: 182976 Value: 0
Key: 219072 Value: 0
Key: 175616 Value: 0
Key: 217536 Value: 0
Key: 182464 Value: 0
Key: 182656 Value: 0
Key: 176448 Value: 0
Key: 179456 Value: 0
Key: 182528 Value: 0
Key: 182720 Value: 0
Key: 176512 Value: 0
Key: 174912 Value: 0
Key: 218368 Value: 0
Key: 177216 Value: 0
Key: 228352 Value: 0
Key: 171200 Value: 0
Key: 7872 Value: 0
Key: 182336 Value: 0
Key: 217088 Value: 0
Key: 217856 Value: 0
Key: 217152 Value: 0
Key: 175232 Value: 0
Key: 255936 Value: 0
Key: 218176 Value: 0
Key: 218240 Value: 0
Key: 174528 Value: 0
Key: 219264 Value: 0
Key: 171712 Value: 0
Key: 175296 Value: 0
Key: 182848 Value: 0
Key: 217920 Value: 0
Key: 174464 Value: 0
Key: 228608 Value: 0
Key: 182912 Value: 0
Key: 218496 Value: 0
Key: 182400 Value: 0
Key: 183168 Value: 0
Key: 177152 Value: 0
Key: 171136 Value: 0
Key: 181184 Value: 0
Key: 218112 Value: 0
Key: 174656 Value: 0
Key: 174592 Value: 0
Key: 218048 Value: 0
Key: 175360 Value: 0
Key: 183104 Value: 0
Key: 217792 Value: 0
Key: 182784 Value: 0
Key: 176576 Value: 0
Key: 182592 Value: 0
Key: 222976 Value: 0
Key: 174848 Value: 0
Key: 171648 Value: 1
Key: 177856 Value: 0
Key: 182976 Value: 0
Key: 219072 Value: 0
Key: 175616 Value: 0
Key: 217536 Value: 0
Key: 182464 Value: 0
Key: 182656 Value: 0
Key: 176448 Value: 0
Key: 179456 Value: 0
Key: 182528 Value: 0
Key: 182720 Value: 0
Key: 176512 Value: 0
Key: 174912 Value: 0
Key: 218368 Value: 0
Key: 177216 Value: 0
Key: 228352 Value: 0
Key: 171200 Value: 0
Key: 7872 Value: 0
Key: 182336 Value: 0
Key: 217088 Value: 0
Key: 217856 Value: 0
Key: 217152 Value: 0
Key: 175232 Value: 0
Key: 255936 Value: 0
Key: 218176 Value: 0
Key: 218240 Value: 0
Key: 174528 Value: 0
Key: 219264 Value: 0
Key: 171712 Value: 0
Key: 175296 Value: 0
Key: 182848 Value: 0
Key: 217920 Value: 0
Key: 174464 Value: 0
Key: 228608 Value: 0
Key: 182912 Value: 0
Key: 218496 Value: 0
Key: 182400 Value: 0
Key: 183168 Value: 0
Key: 177152 Value: 0
Key: 171136 Value: 0
Key: 181184 Value: 0
Key: 218112 Value: 0
Key: 174656 Value: 0
Key: 174592 Value: 0
Key: 218048 Value: 0
Key: 175360 Value: 0
Key: 183104 Value: 0
Key: 217792 Value: 0
Key: 182784 Value: 0
Key: 176576 Value: 0
Key: 182592 Value: 0
Key: 222976 Value: 0
Key: 174848 Value: 0
Key: 171648 Value: 0
Key: 177856 Value: 1
Key: 182976 Value: 0
Key: 219072 Value: 0
Key: 175616 Value: 0
Key: 217536 Value: 0
Key: 182464 Value: 0
Key: 182656 Value: 0
Key: 176448 Value: 0
Key: 179456 Value: 0
Key: 182528 Value: 0
Key: 182720 Value: 0
Key: 176512 Value: 0
Key: 174912 Value: 0
Key: 218368 Value: 0
Key: 177216 Value: 0
Key: 228352 Value: 0
Key: 171200 Value: 0
Key: 7872 Value: 0
Key: 182336 Value: 0
Key: 217088 Value: 0
Key: 217856 Value: 0
Key: 217152 Value: 0
Key: 175232 Value: 0
Key: 255936 Value: 0
Key: 218176 Value: 0
Key: 218240 Value: 0
Key: 177280 Value: 1
Key: 174528 Value: 0
Key: 219264 Value: 0
Key: 171712 Value: 0
Key: 175296 Value: 0
Key: 182848 Value: 0
Key: 217920 Value: 0
Key: 174464 Value: 0
Key: 228608 Value: 0
Key: 182912 Value: 0
Key: 218496 Value: 0
Key: 182400 Value: 0
Key: 183168 Value: 0
Key: 177152 Value: 0
Key: 171136 Value: 0
Key: 181184 Value: 0
Key: 218112 Value: 0
Key: 174656 Value: 0
Key: 174592 Value: 0
Key: 218048 Value: 0
Key: 175360 Value: 0
Key: 183104 Value: 0
Key: 217792 Value: 0
Key: 182784 Value: 0
Key: 176576 Value: 0
Key: 182592 Value: 0
Key: 222976 Value: 0
Key: 174848 Value: 0
Key: 171648 Value: 0
Key: 177856 Value: 0
Key: 182976 Value: 0
Key: 219072 Value: 0
Key: 175616 Value: 0
Key: 217536 Value: 0
Key: 182464 Value: 0
Key: 182656 Value: 0
Key: 176448 Value: 0
Key: 179456 Value: 0
Key: 182528 Value: 0
Key: 182720 Value: 0
Key: 176512 Value: 0
Key: 174912 Value: 0
Key: 218368 Value: 0
Key: 177216 Value: 0
Key: 228352 Value: 0
Key: 171200 Value: 0
Key: 7872 Value: 0
Key: 182336 Value: 0
Key: 217088 Value: 0
Key: 217856 Value: 0
Key: 217152 Value: 0
Key: 175232 Value: 0
Key: 255936 Value: 0
Key: 218176 Value: 0
Key: 218240 Value: 0
Key: 177280 Value: 0
Key: 174528 Value: 0
Key: 219264 Value: 0
Key: 171712 Value: 0
Key: 175296 Value: 0
Key: 182848 Value: 0
Key: 217920 Value: 0
Key: 174464 Value: 0
Key: 228608 Value: 0
Key: 182912 Value: 0
Key: 218496 Value: 0
Key: 182400 Value: 0
Key: 183168 Value: 0
Key: 177152 Value: 0
Key: 171136 Value: 0
Key: 218432 Value: 1
Key: 181184 Value: 0
Key: 218112 Value: 0
Key: 174656 Value: 0
Key: 174592 Value: 0
Key: 218048 Value: 0
Key: 175360 Value: 0
Key: 183104 Value: 0
Key: 217792 Value: 0
Key: 182784 Value: 0
Key: 176576 Value: 0
Key: 182592 Value: 0
Key: 222976 Value: 0
Key: 174848 Value: 0
Key: 171648 Value: 0
Key: 177856 Value: 0
Key: 182976 Value: 0
Key: 219072 Value: 0
Key: 175616 Value: 0
Key: 217536 Value: 0
Key: 182464 Value: 0
Key: 182656 Value: 0
Key: 176448 Value: 0
Key: 179456 Value: 0
Key: 182528 Value: 0
Key: 182720 Value: 0
Key: 176512 Value: 0
Key: 174912 Value: 0
Key: 218368 Value: 0
Key: 177216 Value: 0
Key: 228352 Value: 0
Key: 171200 Value: 0
Key: 7872 Value: 0
Key: 182336 Value: 0
Key: 217088 Value: 0
Key: 217856 Value: 0
Key: 217152 Value: 0
Key: 175232 Value: 0
Key: 255936 Value: 0
Key: 218176 Value: 0
Key: 218240 Value: 0
Key: 177280 Value: 0
Key: 174528 Value: 0
Key: 219264 Value: 0
Key: 171712 Value: 0
Key: 175296 Value: 0
Key: 182848 Value: 0
Key: 217920 Value: 0
Key: 174464 Value: 0
Key: 228608 Value: 0
Key: 182912 Value: 0
Key: 218496 Value: 0
Key: 182400 Value: 0
Key: 183168 Value: 0
Key: 177152 Value: 0
Key: 171136 Value: 0
Key: 218432 Value: 0
Key: 181184 Value: 0
Key: 218112 Value: 0
Key: 174656 Value: 0
Key: 174592 Value: 0
Key: 218048 Value: 0
Key: 175360 Value: 0
Key: 183104 Value: 0
Key: 217792 Value: 0
Key: 182784 Value: 0
Key: 176576 Value: 0
Key: 182592 Value: 0
Key: 222976 Value: 0
Key: 174848 Value: 0
Key: 171648 Value: 0
Key: 177856 Value: 0
Key: 182976 Value: 0
Key: 219072 Value: 0
Key: 175616 Value: 0
Key: 217536 Value: 0
Key: 182464 Value: 0
Key: 182656 Value: 0
Key: 176448 Value: 0
Key: 179456 Value: 0
Key: 182528 Value: 0
Key: 182720 Value: 0
Key: 176512 Value: 0
Key: 174912 Value: 0
Key: 218368 Value: 0
Key: 177216 Value: 0
Key: 228352 Value: 0
Key: 177408 Value: 1
Key: 171200 Value: 0
Key: 7872 Value: 0
Key: 182336 Value: 0
Key: 217088 Value: 0
Key: 217856 Value: 0
Key: 217152 Value: 0
Key: 175232 Value: 0
Key: 255936 Value: 0
Key: 218176 Value: 0
Key: 218240 Value: 0
Key: 177280 Value: 0
Key: 174528 Value: 0
Key: 219264 Value: 0
Key: 171712 Value: 0
Key: 175296 Value: 0
Key: 182848 Value: 0
Key: 217920 Value: 0
Key: 174464 Value: 1
Key: 228608 Value: 0
Key: 182912 Value: 0
Key: 218496 Value: 0
Key: 182400 Value: 0
Key: 183168 Value: 0
Key: 177152 Value: 0
Key: 171136 Value: 0
Key: 218432 Value: 0
Key: 181184 Value: 0
Key: 218112 Value: 0
Key: 174656 Value: 0
Key: 174592 Value: 0
Key: 218048 Value: 0
Key: 175360 Value: 0
Key: 183104 Value: 0
Key: 217792 Value: 0
Key: 182784 Value: 0
Key: 176576 Value: 0
Key: 182592 Value: 0
Key: 222976 Value: 0
Key: 174848 Value: 0
Key: 171648 Value: 0
Key: 177856 Value: 0
Key: 182976 Value: 0
Key: 219072 Value: 0
Key: 175616 Value: 0
Key: 217536 Value: 0
Key: 182464 Value: 0
Key: 182656 Value: 0
Key: 176448 Value: 0
Key: 179456 Value: 0
Key: 182528 Value: 0
Key: 182720 Value: 0
Key: 176512 Value: 0
Key: 174912 Value: 0
Key: 218368 Value: 0
Key: 177216 Value: 0
Key: 228352 Value: 0
Key: 177408 Value: 0
Key: 171200 Value: 0
Key: 7872 Value: 0
Key: 182336 Value: 0
Key: 217088 Value: 0
Key: 217856 Value: 0
Key: 217152 Value: 0
Key: 175232 Value: 0
Key: 255936 Value: 0
Key: 218176 Value: 0
Key: 218240 Value: 0
Key: 177280 Value: 0
Key: 174528 Value: 0
Key: 219264 Value: 0
Key: 171712 Value: 0
Key: 175296 Value: 0
Key: 182848 Value: 0
Key: 217920 Value: 0
Key: 174464 Value: 1
Key: 228608 Value: 0
Key: 182912 Value: 0
Key: 218496 Value: 0
Key: 182400 Value: 0
Key: 183168 Value: 0
Key: 177152 Value: 0
Key: 171136 Value: 0
Key: 218432 Value: 0
Key: 181184 Value: 0
Key: 218112 Value: 0
Key: 174656 Value: 0
Key: 174592 Value: 0
Key: 218048 Value: 0
Key: 175360 Value: 0
Key: 183104 Value: 0
Key: 217792 Value: 0
Key: 182784 Value: 0
Key: 176576 Value: 0
Key: 182592 Value: 0
Key: 222976 Value: 0
Key: 174848 Value: 0
Key: 171648 Value: 0
Key: 177856 Value: 0
Key: 182976 Value: 0
Key: 219072 Value: 0
Key: 175616 Value: 0
Key: 217536 Value: 0
Key: 182464 Value: 0
Key: 182656 Value: 0
Key: 176448 Value: 0
Key: 179456 Value: 0
Key: 182528 Value: 0
Key: 182720 Value: 0
Key: 176512 Value: 0
Key: 174912 Value: 0
Key: 218368 Value: 0
Key: 177216 Value: 0
Key: 228352 Value: 0
Key: 177408 Value: 0
Key: 171200 Value: 0
Key: 7872 Value: 0
Key: 182336 Value: 0
Key: 217088 Value: 0
Key: 217856 Value: 0
Key: 217152 Value: 0
Key: 175232 Value: 0
Key: 255936 Value: 0
Key: 218176 Value: 0
Key: 218240 Value: 0
Key: 177280 Value: 0
Key: 174528 Value: 0
Key: 219264 Value: 0
Key: 171712 Value: 0
Key: 175296 Value: 0
Key: 182848 Value: 0
Key: 217920 Value: 0
Key: 174464 Value: 0
Key: 228608 Value: 0
Key: 182912 Value: 0
Key: 218496 Value: 0
Key: 182400 Value: 0
Key: 183168 Value: 0
Key: 177152 Value: 0
Key: 171136 Value: 0
Key: 218432 Value: 0
Key: 181184 Value: 0
Key: 218112 Value: 0
Key: 174656 Value: 1
Key: 174592 Value: 0
Key: 218048 Value: 0
Key: 175360 Value: 0
Key: 183104 Value: 0
Key: 217792 Value: 0
Key: 182784 Value: 0
Key: 176576 Value: 0
Key: 182592 Value: 0
Key: 222976 Value: 0
Key: 174848 Value: 0
Key: 171648 Value: 0
Key: 177856 Value: 0
Key: 182976 Value: 0
Key: 219072 Value: 0
Key: 175616 Value: 0
Key: 217536 Value: 0
Key: 182464 Value: 0
Key: 182656 Value: 0
Key: 176448 Value: 0
Key: 179456 Value: 0
Key: 182528 Value: 0
Key: 182720 Value: 0
Key: 176512 Value: 0
Key: 174912 Value: 0
Key: 218368 Value: 0
Key: 177216 Value: 0
Key: 228352 Value: 0
Key: 177408 Value: 0
Key: 171200 Value: 0
Key: 7872 Value: 0
Key: 182336 Value: 0
Key: 217088 Value: 0
Key: 217856 Value: 0
Key: 217152 Value: 0
Key: 175232 Value: 0
Key: 255936 Value: 0
Key: 218176 Value: 0
Key: 218240 Value: 0
Key: 229312 Value: 0
Key: 177280 Value: 0
Key: 174528 Value: 0
Key: 219264 Value: 0
Key: 171712 Value: 1
Key: 175296 Value: 0
Key: 182848 Value: 0
Key: 217920 Value: 0
Key: 174464 Value: 0
Key: 228608 Value: 0
Key: 182912 Value: 0
Key: 218496 Value: 0
Key: 182400 Value: 0
Key: 183168 Value: 0
Key: 177152 Value: 0
Key: 171136 Value: 0
Key: 218432 Value: 0
Key: 181184 Value: 0
Key: 218112 Value: 0
Key: 174656 Value: 0
Key: 174592 Value: 0
Key: 218048 Value: 0
Key: 175360 Value: 0
Key: 183104 Value: 0
Key: 217792 Value: 0
Key: 182784 Value: 0
Key: 176576 Value: 0
Key: 182592 Value: 0
Key: 222976 Value: 0
Key: 174848 Value: 0
Key: 171648 Value: 0
Key: 177856 Value: 0
Key: 182976 Value: 0
Key: 219072 Value: 0
Key: 175616 Value: 0
Key: 217536 Value: 0
Key: 182464 Value: 0
Key: 182656 Value: 0
Key: 176448 Value: 0
Key: 179456 Value: 0
Key: 182528 Value: 0
Key: 182720 Value: 0
Key: 176512 Value: 0
Key: 174912 Value: 0
Key: 218368 Value: 0
Key: 177216 Value: 0
Key: 228352 Value: 0
Key: 177408 Value: 0
Key: 171200 Value: 0
Key: 7872 Value: 0
Key: 182336 Value: 0
Key: 217088 Value: 0
Key: 217856 Value: 0
Key: 217152 Value: 0
Key: 175232 Value: 0
Key: 255936 Value: 0
Key: 218176 Value: 0
Key: 218240 Value: 0
Key: 229312 Value: 0
Key: 177280 Value: 0
Key: 174528 Value: 0
Key: 219264 Value: 1
Key: 171712 Value: 0
Key: 175296 Value: 0
Key: 182848 Value: 0
Key: 217920 Value: 0
Key: 174464 Value: 0
Key: 228608 Value: 0
Key: 182912 Value: 0
Key: 218496 Value: 0
Key: 182400 Value: 0
Key: 183168 Value: 0
Key: 177152 Value: 0
Key: 171136 Value: 0
Key: 218432 Value: 0
Key: 181184 Value: 0
Key: 218112 Value: 0
Key: 174656 Value: 0
Key: 174592 Value: 0
Key: 218048 Value: 0
Key: 175360 Value: 0
Key: 183104 Value: 0
Key: 217792 Value: 0
Key: 182784 Value: 0
Key: 176576 Value: 0
Key: 182592 Value: 0
Key: 222976 Value: 0
Key: 174848 Value: 0
Key: 171648 Value: 0
Key: 177856 Value: 0
Key: 182976 Value: 0
Key: 219072 Value: 0
Key: 175616 Value: 0
Key: 217536 Value: 0
Key: 182464 Value: 0
Key: 182656 Value: 0
Key: 176448 Value: 0
Key: 179456 Value: 0
Key: 182528 Value: 0
Key: 182720 Value: 0
Key: 176512 Value: 0
Key: 174912 Value: 0
Key: 218368 Value: 0
Key: 177216 Value: 0
Key: 228352 Value: 0
Key: 177408 Value: 0
Key: 171200 Value: 0
Key: 7872 Value: 0
Key: 182336 Value: 0
Key: 217088 Value: 0
Key: 217856 Value: 0
Key: 217152 Value: 0
Key: 175232 Value: 0
Key: 255936 Value: 0
Key: 218176 Value: 0
Key: 218240 Value: 0
Key: 183232 Value: 1
Key: 222464 Value: 0
Key: 229312 Value: 0
Key: 177280 Value: 0
Key: 174528 Value: 0
Key: 219264 Value: 0
Key: 171712 Value: 0
Key: 175296 Value: 0
Key: 182848 Value: 0
Key: 217920 Value: 0
Key: 174464 Value: 0
Key: 228608 Value: 0
Key: 182912 Value: 0
Key: 218496 Value: 0
Key: 182400 Value: 0
Key: 183168 Value: 0
Key: 177152 Value: 0
Key: 171136 Value: 0
Key: 218432 Value: 0
Key: 181184 Value: 0
Key: 218112 Value: 0
Key: 174656 Value: 0
Key: 174592 Value: 0
Key: 218048 Value: 0
Key: 175360 Value: 0
Key: 183104 Value: 0
Key: 217792 Value: 0
Key: 182784 Value: 0
Key: 176576 Value: 0
Key: 182592 Value: 0
Key: 222976 Value: 0
Key: 174848 Value: 0
Key: 171648 Value: 0
Key: 177856 Value: 0
Key: 182976 Value: 0
Key: 219072 Value: 0
Key: 175616 Value: 0
Key: 217536 Value: 0
Key: 182464 Value: 0
Key: 182656 Value: 0
Key: 176448 Value: 0
Key: 179456 Value: 0
Key: 182528 Value: 0
Key: 182720 Value: 0
Key: 176512 Value: 0
Key: 174912 Value: 0
Key: 218368 Value: 0
Key: 177216 Value: 0
Key: 228352 Value: 0
Key: 177408 Value: 0
Key: 171200 Value: 0
Key: 7872 Value: 0
Key: 182336 Value: 0
Key: 217088 Value: 0
Key: 217856 Value: 0
Key: 217152 Value: 0
Key: 175232 Value: 0
Key: 255936 Value: 0
Key: 218176 Value: 0
Key: 218240 Value: 0
Key: 183232 Value: 0
Key: 222464 Value: 0
Key: 229312 Value: 0
Key: 177280 Value: 0
Key: 174528 Value: 0
Key: 219264 Value: 0
Key: 171712 Value: 0
Key: 175296 Value: 0
Key: 182848 Value: 0
Key: 217920 Value: 0
Key: 174464 Value: 0
Key: 228608 Value: 0
Key: 182912 Value: 0
Key: 218496 Value: 0
Key: 182400 Value: 0
Key: 183168 Value: 0
Key: 177152 Value: 0
Key: 171136 Value: 0
Key: 218432 Value: 0
Key: 181184 Value: 0
Key: 218112 Value: 0
Key: 174656 Value: 0
Key: 174592 Value: 0
Key: 218048 Value: 0
Key: 249856 Value: 1
Key: 175360 Value: 0
Key: 183104 Value: 0
Key: 217792 Value: 0
Key: 182784 Value: 0
Key: 176576 Value: 0
Key: 182592 Value: 0
Key: 222976 Value: 0
Key: 174848 Value: 0
Key: 171648 Value: 0
Key: 177856 Value: 0
Key: 182976 Value: 0
Key: 219072 Value: 0
Key: 175616 Value: 0
Key: 217536 Value: 0
Key: 182464 Value: 0
Key: 182656 Value: 0
Key: 176448 Value: 0
Key: 179456 Value: 0
Key: 182528 Value: 0
Key: 182720 Value: 0
Key: 176512 Value: 0
Key: 174912 Value: 0
Key: 218368 Value: 0
Key: 177216 Value: 0
Key: 228352 Value: 0
Key: 177408 Value: 0
Key: 171200 Value: 0
Key: 7872 Value: 0
Key: 182336 Value: 0
Key: 217088 Value: 0
Key: 217856 Value: 0
Key: 217152 Value: 0
Key: 175232 Value: 0
Key: 255936 Value: 0
Key: 218176 Value: 0
Key: 218240 Value: 0
Key: 171328 Value: 1
Key: 183232 Value: 0
Key: 222464 Value: 0
Key: 229312 Value: 0
Key: 177280 Value: 0
Key: 174528 Value: 0
Key: 219264 Value: 0
Key: 171712 Value: 0
Key: 175296 Value: 0
Key: 182848 Value: 0
Key: 217920 Value: 0
Key: 174464 Value: 0
Key: 228608 Value: 0
Key: 182912 Value: 0
Key: 218496 Value: 0
Key: 182400 Value: 0
Key: 183168 Value: 0
Key: 177152 Value: 0
Key: 171136 Value: 0
Key: 218432 Value: 0
Key: 181184 Value: 0
Key: 218112 Value: 0
Key: 174656 Value: 0
Key: 174592 Value: 0
Key: 218048 Value: 0
Key: 249856 Value: 0
Key: 175360 Value: 0
Key: 183104 Value: 0
Key: 217792 Value: 0
Key: 182784 Value: 0
Key: 176576 Value: 0
Key: 182592 Value: 0
Key: 222976 Value: 0
Key: 174848 Value: 0
Key: 171648 Value: 0
Key: 177856 Value: 0
Key: 182976 Value: 0
Key: 219072 Value: 0
Key: 175616 Value: 0
Key: 217536 Value: 0
Key: 182464 Value: 0
Key: 182656 Value: 0
Key: 176448 Value: 0
Key: 179456 Value: 0
Key: 182528 Value: 0
Key: 182720 Value: 0
Key: 176512 Value: 0
Key: 174912 Value: 0
Key: 218368 Value: 0
Key: 177216 Value: 0
Key: 228352 Value: 0
Key: 177408 Value: 0
Key: 171200 Value: 0
Key: 7872 Value: 0
Key: 182336 Value: 0
Key: 217088 Value: 0
Key: 217856 Value: 0
Key: 217152 Value: 0
Key: 175232 Value: 0
Key: 255936 Value: 0
Key: 218176 Value: 0
Key: 218240 Value: 0
Key: 171264 Value: 1
Key: 171328 Value: 0
Key: 183232 Value: 0
Key: 222464 Value: 0
Key: 229312 Value: 0
Key: 177280 Value: 0
Key: 174528 Value: 0
Key: 219264 Value: 0
Key: 171712 Value: 0
Key: 175296 Value: 0
Key: 182848 Value: 0
Key: 217920 Value: 0
Key: 174464 Value: 0
Key: 228608 Value: 0
Key: 182912 Value: 0
Key: 218496 Value: 0
Key: 182400 Value: 0
Key: 183168 Value: 0
Key: 177152 Value: 0
Key: 171136 Value: 0
Key: 218432 Value: 0
Key: 181184 Value: 0
Key: 218112 Value: 0
Key: 174656 Value: 0
Key: 174592 Value: 0
Key: 218048 Value: 0
Key: 249856 Value: 0
Key: 175360 Value: 0
Key: 183104 Value: 0
Key: 217792 Value: 0
Key: 182784 Value: 0
Key: 176576 Value: 0
Key: 182592 Value: 0
Key: 222976 Value: 0
Key: 174848 Value: 0
Key: 171648 Value: 0
Key: 177856 Value: 0
Key: 182976 Value: 0
Key: 219072 Value: 0
Key: 175616 Value: 0
Key: 217536 Value: 0
Key: 182464 Value: 0
Key: 182656 Value: 0
Key: 176448 Value: 0
Key: 179456 Value: 0
Key: 182528 Value: 0
Key: 182720 Value: 0
Key: 176512 Value: 0
Key: 174912 Value: 0
Key: 218368 Value: 0
Key: 177216 Value: 0
Key: 228352 Value: 0
Key: 177408 Value: 0
Key: 171200 Value: 0
Key: 7872 Value: 0
Key: 182336 Value: 0
Key: 217088 Value: 0
Key: 217856 Value: 0
Key: 217152 Value: 0
Key: 175232 Value: 0
Key: 255936 Value: 0
Key: 218176 Value: 0
Key: 218240 Value: 0
Key: 171392 Value: 1
Key: 171264 Value: 0
Key: 171328 Value: 0
Key: 183232 Value: 0
Key: 222464 Value: 0
Key: 229312 Value: 0
Key: 177280 Value: 0
Key: 174528 Value: 0
Key: 219264 Value: 0
Key: 171712 Value: 0
Key: 175296 Value: 0
Key: 182848 Value: 0
Key: 217920 Value: 0
Key: 174464 Value: 0
Key: 228608 Value: 0
Key: 182912 Value: 0
Key: 218496 Value: 0
Key: 182400 Value: 0
Key: 183168 Value: 0
Key: 177152 Value: 0
Key: 171136 Value: 0
Key: 218432 Value: 0
Key: 181184 Value: 0
Key: 218112 Value: 0
Key: 174656 Value: 0
Key: 174592 Value: 0
Key: 218048 Value: 0
Key: 249856 Value: 0
Key: 175360 Value: 0
Key: 183104 Value: 0
Key: 217792 Value: 0
Key: 182784 Value: 0
Key: 176576 Value: 0
Key: 182592 Value: 0
Key: 222976 Value: 0
Key: 174848 Value: 0
Key: 171648 Value: 0
Key: 177856 Value: 0
Key: 182976 Value: 0
Key: 219072 Value: 0
Key: 175616 Value: 0
Key: 217536 Value: 0
Key: 182464 Value: 0
Key: 182656 Value: 0
Key: 176448 Value: 0
Key: 179456 Value: 0
Key: 182528 Value: 0
Key: 182720 Value: 0
Key: 176512 Value: 0
Key: 174912 Value: 0
Key: 218368 Value: 0
Key: 177216 Value: 0
Key: 228352 Value: 0
Key: 177408 Value: 0
Key: 171200 Value: 0
Key: 7872 Value: 0
Key: 182336 Value: 0
Key: 217088 Value: 0
Key: 217856 Value: 0
Key: 217152 Value: 0
Key: 175232 Value: 0
Key: 255936 Value: 0
Key: 218176 Value: 0
Key: 218240 Value: 0
Key: 171456 Value: 1
Key: 171392 Value: 0
Key: 171264 Value: 0
Key: 171328 Value: 0
Key: 183232 Value: 0
Key: 222464 Value: 0
Key: 229312 Value: 0
Key: 177280 Value: 0
Key: 174528 Value: 0
Key: 219264 Value: 0
Key: 171712 Value: 0
Key: 175296 Value: 0
Key: 182848 Value: 0
Key: 217920 Value: 0
Key: 174464 Value: 0
Key: 228608 Value: 0
Key: 182912 Value: 0
Key: 218496 Value: 0
Key: 182400 Value: 0
Key: 183168 Value: 0
Key: 177152 Value: 0
Key: 171136 Value: 0
Key: 218432 Value: 0
Key: 181184 Value: 0
Key: 218112 Value: 0
Key: 174656 Value: 0
Key: 174592 Value: 0
Key: 218048 Value: 0
Key: 249856 Value: 0
Key: 175360 Value: 0
Key: 183104 Value: 0
Key: 217792 Value: 0
Key: 182784 Value: 0
Key: 176576 Value: 0
Key: 182592 Value: 0
Key: 222976 Value: 0
Key: 174848 Value: 0
Key: 171648 Value: 0
Key: 177856 Value: 0
Key: 182976 Value: 0
Key: 219072 Value: 0
Key: 175616 Value: 0
Key: 217536 Value: 0
Key: 182464 Value: 0
Key: 182656 Value: 0
Key: 176448 Value: 0
Key: 179456 Value: 0
Key: 182528 Value: 0
Key: 182720 Value: 0
Key: 176512 Value: 0
Key: 174912 Value: 0
Key: 218368 Value: 0
Key: 177216 Value: 0
Key: 228352 Value: 0
Key: 177408 Value: 0
Key: 171200 Value: 0
Key: 7872 Value: 0
Key: 182336 Value: 0
Key: 217088 Value: 0
Key: 217856 Value: 0
Key: 217152 Value: 0
Key: 175232 Value: 0
Key: 255936 Value: 0
Key: 218176 Value: 0
Key: 218240 Value: 0
Key: 178816 Value: 1
Key: 171456 Value: 0
Key: 171392 Value: 0
Key: 171264 Value: 0
Key: 171328 Value: 0
Key: 183232 Value: 0
Key: 222464 Value: 0
Key: 229312 Value: 0
Key: 177280 Value: 0
Key: 174528 Value: 0
Key: 219264 Value: 0
Key: 171712 Value: 0
Key: 175296 Value: 0
Key: 182848 Value: 0
Key: 217920 Value: 0
Key: 174464 Value: 0
Key: 228608 Value: 0
Key: 182912 Value: 0
Key: 218496 Value: 0
Key: 182400 Value: 0
Key: 183168 Value: 0
Key: 177152 Value: 0
Key: 171136 Value: 0
Key: 218432 Value: 0
Key: 181184 Value: 0
Key: 218112 Value: 0
Key: 174656 Value: 0
Key: 174592 Value: 0
Key: 218048 Value: 0
Key: 249856 Value: 0
Key: 175360 Value: 0
Key: 183104 Value: 0
Key: 217792 Value: 0
Key: 182784 Value: 0
Key: 176576 Value: 0
Key: 182592 Value: 0
Key: 222976 Value: 0
Key: 174848 Value: 0
Key: 171648 Value: 0
Key: 177856 Value: 0
Key: 182976 Value: 0
Key: 219072 Value: 0
Key: 175616 Value: 0
Key: 217536 Value: 0
Key: 182464 Value: 0
Key: 182656 Value: 0
Key: 176448 Value: 0
Key: 179456 Value: 0
Key: 182528 Value: 0
Key: 182720 Value: 0
Key: 176512 Value: 0
Key: 174912 Value: 0
Key: 218368 Value: 0
Key: 177216 Value: 0
Key: 228352 Value: 0
Key: 177408 Value: 0
Key: 171200 Value: 0
Key: 7872 Value: 0
Key: 182336 Value: 0
Key: 217088 Value: 0
Key: 217856 Value: 0
Key: 217152 Value: 0
Key: 175232 Value: 0
Key: 255936 Value: 0
Key: 218176 Value: 0
Key: 218240 Value: 0
Key: 178624 Value: 1
Key: 178816 Value: 0
Key: 171456 Value: 0
Key: 171392 Value: 0
Key: 171264 Value: 0
Key: 171328 Value: 0
Key: 183232 Value: 0
Key: 222464 Value: 0
Key: 229312 Value: 0
Key: 177280 Value: 0
Key: 174528 Value: 0
Key: 219264 Value: 0
Key: 171712 Value: 0
Key: 175296 Value: 0
Key: 182848 Value: 0
Key: 217920 Value: 0
Key: 174464 Value: 0
Key: 228608 Value: 0
Key: 182912 Value: 0
Key: 218496 Value: 0
Key: 182400 Value: 0
Key: 183168 Value: 0
Key: 177152 Value: 0
Key: 171136 Value: 0
Key: 218432 Value: 0
Key: 181184 Value: 0
Key: 218112 Value: 0
Key: 174656 Value: 0
Key: 174592 Value: 0
Key: 218048 Value: 0
Key: 249856 Value: 0
Key: 175360 Value: 0
Key: 183104 Value: 0
Key: 217792 Value: 0
Key: 182784 Value: 0
Key: 176576 Value: 0
Key: 182592 Value: 0
Key: 222976 Value: 0
Key: 174848 Value: 0
Key: 171648 Value: 0
Key: 177856 Value: 0
Key: 182976 Value: 0
Key: 219072 Value: 0
Key: 175616 Value: 0
Key: 217536 Value: 0
Key: 182464 Value: 0
Key: 182656 Value: 0
Key: 176448 Value: 0
Key: 179456 Value: 0
Key: 182528 Value: 0
Key: 182720 Value: 0
Key: 176512 Value: 0
Key: 174912 Value: 0
Key: 218368 Value: 0
Key: 177216 Value: 0
Key: 228352 Value: 0
Key: 177408 Value: 0
Key: 171200 Value: 0
Key: 7872 Value: 0
Key: 182336 Value: 0
Key: 217088 Value: 0
Key: 217856 Value: 0
Key: 217152 Value: 0
Key: 175232 Value: 0
Key: 255936 Value: 0
Key: 218176 Value: 0
Key: 218240 Value: 0
Key: 178560 Value: 1
Key: 178624 Value: 0
Key: 178816 Value: 0
Key: 171456 Value: 0
Key: 171392 Value: 0
Key: 171264 Value: 0
Key: 171328 Value: 0
Key: 183232 Value: 0
Key: 222464 Value: 0
Key: 229312 Value: 0
Key: 177280 Value: 0
Key: 174528 Value: 0
Key: 219264 Value: 0
Key: 171712 Value: 0
Key: 175296 Value: 0
Key: 182848 Value: 0
Key: 217920 Value: 0
Key: 174464 Value: 0
Key: 228608 Value: 0
Key: 182912 Value: 0
Key: 218496 Value: 0
Key: 182400 Value: 0
Key: 183168 Value: 0
Key: 177152 Value: 0
Key: 171136 Value: 0
Key: 218432 Value: 0
Key: 181184 Value: 0
Key: 218112 Value: 0
Key: 174656 Value: 0
Key: 174592 Value: 0
Key: 218048 Value: 0
Key: 249856 Value: 0
Key: 175360 Value: 0
Key: 183104 Value: 0
Key: 217792 Value: 0
Key: 182784 Value: 0
Key: 176576 Value: 0
Key: 182592 Value: 0
Key: 222976 Value: 0
Key: 174848 Value: 0
Key: 171648 Value: 0
Key: 177856 Value: 0
Key: 182976 Value: 0
Key: 219072 Value: 0
Key: 175616 Value: 0
Key: 217536 Value: 0
Key: 182464 Value: 0
Key: 182656 Value: 0
Key: 176448 Value: 0
Key: 179456 Value: 0
Key: 182528 Value: 0
Key: 182720 Value: 0
Key: 176512 Value: 0
Key: 174912 Value: 0
Key: 218368 Value: 0
Key: 177216 Value: 0
Key: 228352 Value: 0
Key: 177408 Value: 0
Key: 171200 Value: 0
Key: 7872 Value: 0
Key: 182336 Value: 0
Key: 217088 Value: 0
Key: 217856 Value: 0
Key: 217152 Value: 0
Key: 175232 Value: 0
Key: 255936 Value: 0
Key: 218176 Value: 0
Key: 218240 Value: 0
Key: 178560 Value: 0
Key: 178624 Value: 0
Key: 178816 Value: 0
Key: 171456 Value: 0
Key: 171392 Value: 0
Key: 171264 Value: 0
Key: 171328 Value: 0
Key: 183232 Value: 0
Key: 222464 Value: 0
Key: 229312 Value: 0
Key: 177280 Value: 0
Key: 174528 Value: 0
Key: 219264 Value: 0
Key: 177920 Value: 1
Key: 171712 Value: 0
Key: 175296 Value: 0
Key: 182848 Value: 0
Key: 217920 Value: 0
Key: 174464 Value: 0
Key: 228608 Value: 0
Key: 182912 Value: 0
Key: 218496 Value: 0
Key: 182400 Value: 0
Key: 183168 Value: 0
Key: 177152 Value: 0
Key: 171136 Value: 0
Key: 218432 Value: 0
Key: 181184 Value: 0
Key: 218112 Value: 0
Key: 174656 Value: 0
Key: 174592 Value: 0
Key: 218048 Value: 0
Key: 249856 Value: 0
Key: 175360 Value: 0
Key: 183104 Value: 0
Key: 217792 Value: 0
Key: 182784 Value: 0
Key: 176576 Value: 0
Key: 182592 Value: 0
Key: 222976 Value: 0
Key: 174848 Value: 0
Key: 171648 Value: 0
Key: 177856 Value: 0
Key: 182976 Value: 0
Key: 219072 Value: 0
Key: 175616 Value: 0
Key: 217536 Value: 0
Key: 182464 Value: 0
Key: 182656 Value: 0
Key: 176448 Value: 0
Key: 179456 Value: 0
Key: 182528 Value: 0
Key: 182720 Value: 0
Key: 176512 Value: 0
Key: 174912 Value: 0
Key: 218368 Value: 0
Key: 177216 Value: 0
Key: 228352 Value: 0
Key: 177408 Value: 0
Key: 171200 Value: 0
Key: 7872 Value: 0
Key: 182336 Value: 0
Key: 217088 Value: 0
Key: 217856 Value: 0
Key: 217152 Value: 0
Key: 175232 Value: 0
Key: 255936 Value: 0
Key: 218176 Value: 0
Key: 218240 Value: 0
Key: 178560 Value: 0
Key: 178624 Value: 0
Key: 178816 Value: 0
Key: 171456 Value: 0
Key: 171392 Value: 0
Key: 171264 Value: 0
Key: 171328 Value: 0
Key: 183232 Value: 0
Key: 222464 Value: 0
Key: 229312 Value: 0
Key: 177280 Value: 0
Key: 174528 Value: 0
Key: 219264 Value: 0
Key: 177920 Value: 0
Key: 171712 Value: 0
Key: 175296 Value: 0
Key: 182848 Value: 0
Key: 217920 Value: 0
Key: 174464 Value: 0
Key: 228608 Value: 0
Key: 182912 Value: 0
Key: 218496 Value: 0
Key: 182400 Value: 0
Key: 183168 Value: 0
Key: 177152 Value: 0
Key: 171136 Value: 0
Key: 218432 Value: 0
Key: 181184 Value: 0
Key: 218112 Value: 0
Key: 174656 Value: 0
Key: 174592 Value: 0
Key: 218048 Value: 0
Key: 249856 Value: 0
Key: 175360 Value: 0
Key: 183104 Value: 0
Key: 217792 Value: 0
Key: 182784 Value: 0
Key: 176576 Value: 0
Key: 182592 Value: 0
Key: 222976 Value: 0
Key: 174848 Value: 0
Key: 171648 Value: 0
Key: 177856 Value: 0
Key: 182976 Value: 0
Key: 219072 Value: 0
Key: 175616 Value: 0
Key: 217536 Value: 0
Key: 182464 Value: 0
Key: 182656 Value: 0
Key: 176448 Value: 0
Key: 179456 Value: 0
Key: 182528 Value: 0
Key: 182720 Value: 0
Key: 176512 Value: 0
Key: 174912 Value: 0
Key: 218368 Value: 0
Key: 177216 Value: 0
Key: 178688 Value: 1
Key: 228352 Value: 0
Key: 177408 Value: 0
Key: 171200 Value: 0
Key: 7872 Value: 0
Key: 182336 Value: 0
Key: 217088 Value: 0
Key: 217856 Value: 0
Key: 217152 Value: 0
Key: 175232 Value: 0
Key: 255936 Value: 0
Key: 218176 Value: 0
Key: 218240 Value: 0
Key: 183296 Value: 1
Key: 178560 Value: 0
Key: 178624 Value: 0
Key: 178816 Value: 0
Key: 171456 Value: 0
Key: 171392 Value: 0
Key: 171264 Value: 0
Key: 171328 Value: 0
Key: 183232 Value: 0
Key: 222464 Value: 0
Key: 229312 Value: 0
Key: 177280 Value: 0
Key: 174528 Value: 0
Key: 219264 Value: 0
Key: 177920 Value: 0
Key: 171712 Value: 0
Key: 175296 Value: 0
Key: 182848 Value: 0
Key: 217920 Value: 0
Key: 174464 Value: 0
Key: 228608 Value: 0
Key: 182912 Value: 0
Key: 218496 Value: 0
Key: 182400 Value: 0
Key: 183168 Value: 0
Key: 177152 Value: 0
Key: 171136 Value: 0
Key: 218432 Value: 0
Key: 181184 Value: 0
Key: 218112 Value: 0
Key: 174656 Value: 0
Key: 174592 Value: 0
Key: 218048 Value: 0
Key: 249856 Value: 0
Key: 175360 Value: 0
Key: 183104 Value: 0
Key: 217792 Value: 0
Key: 182784 Value: 0
Key: 176576 Value: 0
Key: 182592 Value: 0
Key: 222976 Value: 0
Key: 174848 Value: 0
Key: 171648 Value: 0
Key: 177856 Value: 0
Key: 182976 Value: 0
Key: 219072 Value: 0
Key: 175616 Value: 0
Key: 217536 Value: 0
Key: 182464 Value: 0
Key: 182656 Value: 0
Key: 176448 Value: 0
Key: 179456 Value: 0
Key: 182528 Value: 0
Key: 182720 Value: 0
Key: 176512 Value: 0
Key: 174912 Value: 0
Key: 218368 Value: 0
Key: 177216 Value: 0
Key: 178688 Value: 0
Key: 228352 Value: 0
Key: 177408 Value: 0
Key: 171200 Value: 0
Key: 7872 Value: 0
Key: 182336 Value: 0
Key: 217088 Value: 0
Key: 217856 Value: 0
Key: 217152 Value: 0
Key: 175232 Value: 0
Key: 255936 Value: 0
Key: 218176 Value: 0
Key: 218240 Value: 0
Key: 176064 Value: 1
Key: 183296 Value: 0
Key: 178560 Value: 0
Key: 178624 Value: 0
Key: 178816 Value: 0
Key: 171456 Value: 0
Key: 171392 Value: 0
Key: 171264 Value: 0
Key: 171328 Value: 0
Key: 183232 Value: 0
Key: 222464 Value: 0
Key: 229312 Value: 0
Key: 177280 Value: 0
Key: 174528 Value: 0
Key: 219264 Value: 0
Key: 177920 Value: 0
Key: 171712 Value: 0
Key: 175296 Value: 0
Key: 182848 Value: 0
Key: 217920 Value: 0
Key: 174464 Value: 0
Key: 228608 Value: 0
Key: 182912 Value: 0
Key: 218496 Value: 0
Key: 182400 Value: 0
Key: 183168 Value: 0
Key: 177152 Value: 0
Key: 171136 Value: 0
Key: 218432 Value: 0
Key: 181184 Value: 0
Key: 218112 Value: 0
Key: 174656 Value: 0
Key: 174592 Value: 0
Key: 218048 Value: 0
Key: 249856 Value: 0
Key: 175360 Value: 0
Key: 183104 Value: 0
Key: 217792 Value: 0
Key: 182784 Value: 0
Key: 176576 Value: 0
Key: 182592 Value: 0
Key: 222976 Value: 0
Key: 174848 Value: 0
Key: 171648 Value: 0
Key: 177856 Value: 0
Key: 182976 Value: 0
Key: 219072 Value: 0
Key: 175616 Value: 0
Key: 217536 Value: 0
Key: 182464 Value: 0
Key: 182656 Value: 0
Key: 176448 Value: 0
Key: 179456 Value: 0
Key: 182528 Value: 0
Key: 182720 Value: 0
Key: 176512 Value: 0
Key: 174912 Value: 0
Key: 218368 Value: 0
Key: 177216 Value: 0
Key: 178688 Value: 0
Key: 228352 Value: 0
Key: 177408 Value: 0
Key: 171200 Value: 0
Key: 7872 Value: 0
Key: 182336 Value: 0
Key: 217088 Value: 0
Key: 217856 Value: 0
Key: 217152 Value: 0
Key: 175232 Value: 0
Key: 255936 Value: 0
Key: 218176 Value: 0
Key: 218240 Value: 0
Key: 175936 Value: 1
Key: 176064 Value: 0
Key: 183296 Value: 0
Key: 178560 Value: 0
Key: 178624 Value: 0
Key: 178816 Value: 0
Key: 171456 Value: 0
Key: 171392 Value: 0
Key: 171264 Value: 0
Key: 171328 Value: 0
Key: 183232 Value: 0
Key: 222464 Value: 0
Key: 229312 Value: 0
Key: 177280 Value: 0
Key: 174528 Value: 0
Key: 219264 Value: 0
Key: 177920 Value: 0
Key: 171712 Value: 0
Key: 175296 Value: 0
Key: 182848 Value: 0
Key: 217920 Value: 0
Key: 174464 Value: 0
Key: 228608 Value: 0
Key: 182912 Value: 0
Key: 218496 Value: 0
Key: 182400 Value: 0
Key: 183168 Value: 0
Key: 177152 Value: 0
Key: 171136 Value: 0
Key: 218432 Value: 0
Key: 181184 Value: 0
Key: 218112 Value: 0
Key: 174656 Value: 0
Key: 174592 Value: 0
Key: 218048 Value: 0
Key: 249856 Value: 0
Key: 175360 Value: 0
Key: 183104 Value: 0
Key: 217792 Value: 0
Key: 182784 Value: 0
Key: 176576 Value: 0
Key: 182592 Value: 0
Key: 222976 Value: 0
Key: 174848 Value: 0
Key: 171648 Value: 0
Key: 177856 Value: 0
Key: 182976 Value: 0
Key: 219072 Value: 0
Key: 175616 Value: 0
Key: 217536 Value: 0
Key: 182464 Value: 0
Key: 182656 Value: 0
Key: 176448 Value: 0
Key: 179456 Value: 0
Key: 182528 Value: 0
Key: 182720 Value: 0
Key: 176512 Value: 0
Key: 174912 Value: 0
Key: 218368 Value: 0
Key: 177216 Value: 0
Key: 178688 Value: 0
Key: 228352 Value: 0
Key: 177408 Value: 0
Key: 171200 Value: 0
Key: 7872 Value: 0
Key: 182336 Value: 0
Key: 217088 Value: 0
Key: 217856 Value: 0
Key: 217152 Value: 0
Key: 175232 Value: 0
Key: 255936 Value: 0
Key: 218176 Value: 0
Key: 218240 Value: 0
Key: 176000 Value: 1
Key: 175936 Value: 0
Key: 176064 Value: 0
Key: 183296 Value: 0
Key: 178560 Value: 0
Key: 178624 Value: 0
Key: 178816 Value: 0
Key: 171456 Value: 0
Key: 171392 Value: 0
Key: 171264 Value: 0
Key: 171328 Value: 0
Key: 183232 Value: 0
Key: 222464 Value: 0
Key: 229312 Value: 0
Key: 177280 Value: 0
Key: 174528 Value: 0
Key: 219264 Value: 0
Key: 177920 Value: 0
Key: 171712 Value: 0
Key: 175296 Value: 0
Key: 182848 Value: 0
Key: 217920 Value: 0
Key: 174464 Value: 0
Key: 228608 Value: 0
Key: 182912 Value: 0
Key: 218496 Value: 0
Key: 182400 Value: 0
Key: 183168 Value: 0
Key: 177152 Value: 0
Key: 171136 Value: 0
Key: 218432 Value: 0
Key: 181184 Value: 0
Key: 218112 Value: 0
Key: 174656 Value: 0
Key: 174592 Value: 0
Key: 218048 Value: 0
Key: 249856 Value: 0
Key: 175360 Value: 0
Key: 183104 Value: 0
Key: 217792 Value: 0
Key: 182784 Value: 0
Key: 176576 Value: 0
Key: 182592 Value: 0
Key: 222976 Value: 0
Key: 174848 Value: 0
Key: 171648 Value: 0
Key: 177856 Value: 0
Key: 182976 Value: 0
Key: 219072 Value: 0
Key: 175616 Value: 0
Key: 217536 Value: 0
Key: 182464 Value: 0
Key: 182656 Value: 0
Key: 176448 Value: 0
Key: 179456 Value: 0
Key: 182528 Value: 0
Key: 182720 Value: 0
Key: 176512 Value: 0
Key: 174912 Value: 0
Key: 218368 Value: 0
Key: 177216 Value: 0
Key: 178688 Value: 0
Key: 228352 Value: 0
Key: 177408 Value: 0
Key: 171200 Value: 0
Key: 7872 Value: 0
Key: 182336 Value: 0
Key: 217088 Value: 0
Key: 217856 Value: 0
Key: 217152 Value: 0
Key: 175232 Value: 0
Key: 255936 Value: 0
Key: 218176 Value: 0
Key: 218240 Value: 0
Key: 176000 Value: 0
Key: 175936 Value: 0
Key: 176064 Value: 0
Key: 183296 Value: 0
Key: 178560 Value: 0
Key: 178624 Value: 0
Key: 178816 Value: 0
Key: 171456 Value: 0
Key: 171392 Value: 0
Key: 171264 Value: 0
Key: 171328 Value: 0
Key: 183232 Value: 0
Key: 222464 Value: 0
Key: 229312 Value: 0
Key: 177280 Value: 0
Key: 174528 Value: 0
Key: 219264 Value: 0
Key: 177920 Value: 0
Key: 171712 Value: 0
Key: 175296 Value: 0
Key: 182848 Value: 0
Key: 217920 Value: 0
Key: 174464 Value: 0
Key: 228608 Value: 0
Key: 182912 Value: 0
Key: 218496 Value: 0
Key: 182400 Value: 0
Key: 183168 Value: 0
Key: 177152 Value: 0
Key: 171136 Value: 0
Key: 218432 Value: 0
Key: 181184 Value: 0
Key: 218112 Value: 0
Key: 174656 Value: 0
Key: 174592 Value: 0
Key: 218048 Value: 0
Key: 249856 Value: 0
Key: 175360 Value: 0
Key: 183104 Value: 0
Key: 217792 Value: 0
Key: 182784 Value: 0
Key: 176576 Value: 0
Key: 182592 Value: 0
Key: 222976 Value: 0
Key: 174848 Value: 0
Key: 171648 Value: 0
Key: 177856 Value: 0
Key: 182976 Value: 0
Key: 219072 Value: 0
Key: 175616 Value: 0
Key: 217536 Value: 0
Key: 182464 Value: 0
Key: 182656 Value: 0
Key: 176448 Value: 0
Key: 179456 Value: 0
Key: 182528 Value: 0
Key: 182720 Value: 0
Key: 176512 Value: 0
Key: 174912 Value: 0
Key: 218368 Value: 0
Key: 177216 Value: 0
Key: 178688 Value: 0
Key: 228352 Value: 0
Key: 177408 Value: 1
Key: 171200 Value: 0
Key: 7872 Value: 0
Key: 182336 Value: 0
Key: 217088 Value: 0
Key: 217856 Value: 0
Key: 217152 Value: 0
Key: 175232 Value: 0
Key: 255936 Value: 0
Key: 218176 Value: 0
Key: 218240 Value: 0
Key: 176000 Value: 0
Key: 175936 Value: 0
Key: 176064 Value: 0
Key: 183296 Value: 0
Key: 178560 Value: 0
Key: 178624 Value: 0
Key: 178816 Value: 0
Key: 171456 Value: 0
Key: 171392 Value: 0
Key: 171264 Value: 0
Key: 171328 Value: 0
Key: 183232 Value: 0
Key: 222464 Value: 0
Key: 229312 Value: 0
Key: 177280 Value: 0
Key: 174528 Value: 0
Key: 219264 Value: 0
Key: 177920 Value: 0
Key: 171712 Value: 0
Key: 175296 Value: 0
Key: 182848 Value: 0
Key: 217920 Value: 0
Key: 174464 Value: 0
Key: 228608 Value: 0
Key: 182912 Value: 0
Key: 218496 Value: 0
Key: 182400 Value: 0
Key: 183168 Value: 0
Key: 177152 Value: 0
Key: 171136 Value: 0
Key: 218432 Value: 0
Key: 181184 Value: 0
Key: 218112 Value: 0
Key: 174656 Value: 0
Key: 174592 Value: 0
Key: 218048 Value: 0
Key: 249856 Value: 0
Key: 175360 Value: 0
Key: 183104 Value: 0
Key: 217792 Value: 0
Key: 182784 Value: 0
Key: 176576 Value: 0
Key: 182592 Value: 0
Key: 222976 Value: 0
Key: 218304 Value: 1
Key: 174848 Value: 0
Key: 171648 Value: 0
Key: 177856 Value: 0
Key: 182976 Value: 0
Key: 219072 Value: 0
Key: 175616 Value: 0
Key: 217536 Value: 0
Key: 182464 Value: 0
Key: 182656 Value: 0
Key: 176448 Value: 0
Key: 179456 Value: 0
Key: 182528 Value: 0
Key: 182720 Value: 0
Key: 176512 Value: 0
Key: 174912 Value: 0
Key: 218368 Value: 0
Key: 177216 Value: 0
Key: 178688 Value: 0
Key: 228352 Value: 0
Key: 177408 Value: 0
Key: 171200 Value: 0
Key: 7872 Value: 0
Key: 182336 Value: 0
Key: 217088 Value: 0
Key: 217856 Value: 0
Key: 217152 Value: 0
Key: 175232 Value: 0
Key: 255936 Value: 0
Key: 218176 Value: 0
Key: 218240 Value: 0
Key: 176000 Value: 0
Key: 175936 Value: 0
Key: 176064 Value: 0
Key: 183296 Value: 0
Key: 178560 Value: 0
Key: 178624 Value: 0
Key: 178816 Value: 0
Key: 171456 Value: 0
Key: 171392 Value: 0
Key: 171264 Value: 0
Key: 171328 Value: 0
Key: 183232 Value: 0
Key: 222464 Value: 0
Key: 229312 Value: 0
Key: 177280 Value: 0
Key: 174528 Value: 0
Key: 219264 Value: 0
Key: 177920 Value: 0
Key: 171712 Value: 0
Key: 175296 Value: 0
Key: 182848 Value: 0
Key: 217920 Value: 0
Key: 174464 Value: 0
Key: 228608 Value: 0
Key: 182912 Value: 0
Key: 218496 Value: 0
Key: 182400 Value: 0
Key: 183168 Value: 0
Key: 177152 Value: 0
Key: 177344 Value: 1
Key: 171136 Value: 0
Key: 218432 Value: 0
Key: 181184 Value: 0
Key: 218112 Value: 0
Key: 174656 Value: 0
Key: 174592 Value: 0
Key: 218048 Value: 0
Key: 249856 Value: 0
Key: 175360 Value: 0
Key: 183104 Value: 0
Key: 217792 Value: 0
Key: 182784 Value: 0
Key: 176576 Value: 0
Key: 182592 Value: 0
Key: 222976 Value: 0
Key: 218304 Value: 0
Key: 174848 Value: 0
Key: 171648 Value: 0
Key: 177856 Value: 0
Key: 182976 Value: 0
Key: 219072 Value: 0
Key: 175616 Value: 0
Key: 217536 Value: 0
Key: 182464 Value: 0
Key: 182656 Value: 0
Key: 176448 Value: 0
Key: 179456 Value: 0
Key: 182528 Value: 0
Key: 182720 Value: 0
Key: 176512 Value: 0
Key: 174912 Value: 0
Key: 218368 Value: 0
Key: 177216 Value: 0
Key: 178688 Value: 0
Key: 228352 Value: 0
Key: 177408 Value: 0
Key: 171200 Value: 0
Key: 7872 Value: 0
Key: 182336 Value: 0
Key: 217088 Value: 0
Key: 217856 Value: 0
Key: 217152 Value: 0
Key: 175232 Value: 0
Key: 255936 Value: 0
Key: 218176 Value: 0
Key: 218240 Value: 0
Key: 171520 Value: 1
Key: 176000 Value: 0
Key: 175936 Value: 0
Key: 176064 Value: 0
Key: 183296 Value: 0
Key: 178560 Value: 0
Key: 178624 Value: 0
Key: 178816 Value: 0
Key: 171456 Value: 0
Key: 171392 Value: 0
Key: 171264 Value: 0
Key: 171328 Value: 0
Key: 183232 Value: 0
Key: 222464 Value: 0
Key: 229312 Value: 0
Key: 177280 Value: 0
Key: 174528 Value: 0
Key: 219264 Value: 0
Key: 177920 Value: 0
Key: 171712 Value: 0
Key: 175296 Value: 0
Key: 182848 Value: 0
Key: 217920 Value: 0
Key: 174464 Value: 0
Key: 228608 Value: 0
Key: 182912 Value: 0
Key: 218496 Value: 0
Key: 182400 Value: 0
Key: 183168 Value: 0
Key: 177152 Value: 0
Key: 177344 Value: 0
Key: 171136 Value: 0
Key: 218432 Value: 0
Key: 181184 Value: 0
Key: 218112 Value: 0
Key: 174656 Value: 0
Key: 174592 Value: 0
Key: 218048 Value: 0
Key: 249856 Value: 0
Key: 175360 Value: 0
Key: 183104 Value: 0
Key: 217792 Value: 0
Key: 182784 Value: 0
Key: 176576 Value: 0
Key: 182592 Value: 0
Key: 222976 Value: 0
Key: 218304 Value: 0
Key: 174848 Value: 0
Key: 171648 Value: 0
Key: 177856 Value: 0
Key: 182976 Value: 0
Key: 219072 Value: 0
Key: 175616 Value: 0
Key: 217536 Value: 0
Key: 182464 Value: 0
Key: 182656 Value: 0
Key: 176448 Value: 0
Key: 179456 Value: 0
Key: 182528 Value: 0
Key: 182720 Value: 0
Key: 176512 Value: 0
Key: 174912 Value: 0
Key: 218368 Value: 0
Key: 177216 Value: 0
Key: 178688 Value: 0
Key: 228352 Value: 0
Key: 177408 Value: 0
Key: 171200 Value: 0
Key: 7872 Value: 0
Key: 182336 Value: 0
Key: 217088 Value: 0
Key: 217856 Value: 0
Key: 217152 Value: 0
Key: 175232 Value: 0
Key: 255936 Value: 0
Key: 218176 Value: 0
Key: 218240 Value: 0
Key: 171520 Value: 0
Key: 176000 Value: 0
Key: 175936 Value: 0
Key: 176064 Value: 0
Key: 183296 Value: 0
Key: 178560 Value: 0
Key: 178624 Value: 0
Key: 178816 Value: 0
Key: 171456 Value: 0
Key: 171392 Value: 0
Key: 171264 Value: 0
Key: 171328 Value: 0
Key: 183232 Value: 0
Key: 222464 Value: 0
Key: 229312 Value: 0
Key: 177280 Value: 0
Key: 174528 Value: 0
Key: 219264 Value: 0
Key: 177920 Value: 0
Key: 171712 Value: 0
Key: 175296 Value: 0
Key: 182848 Value: 0
Key: 217920 Value: 0
Key: 174464 Value: 0
Key: 228608 Value: 0
Key: 176704 Value: 1
Key: 182912 Value: 0
Key: 218496 Value: 0
Key: 182400 Value: 0
Key: 183168 Value: 0
Key: 177152 Value: 0
Key: 177344 Value: 0
Key: 171136 Value: 0
Key: 218432 Value: 0
Key: 181184 Value: 0
Key: 218112 Value: 0
Key: 174656 Value: 0
Key: 174592 Value: 0
Key: 218048 Value: 0
Key: 249856 Value: 0
Key: 175360 Value: 0
Key: 183104 Value: 0
Key: 217792 Value: 0
Key: 182784 Value: 0
Key: 176576 Value: 0
Key: 182592 Value: 0
Key: 222976 Value: 0
Key: 218304 Value: 0
Key: 174848 Value: 0
Key: 171648 Value: 0
Key: 177856 Value: 0
Key: 182976 Value: 0
Key: 219072 Value: 0
Key: 175616 Value: 0
Key: 217536 Value: 0
Key: 182464 Value: 0
Key: 182656 Value: 0
Key: 176448 Value: 0
Key: 179456 Value: 0
Key: 182528 Value: 0
Key: 182720 Value: 0
Key: 176512 Value: 0
Key: 174912 Value: 0
Key: 218368 Value: 0
Key: 177216 Value: 0
Key: 178688 Value: 0
Key: 228352 Value: 0
Key: 177408 Value: 0
Key: 171200 Value: 0
Key: 7872 Value: 0
Key: 182336 Value: 0
Key: 217088 Value: 0
Key: 217856 Value: 0
Key: 217152 Value: 0
Key: 175232 Value: 0
Key: 255936 Value: 0
Key: 218176 Value: 0
Key: 218240 Value: 0
Key: 176832 Value: 1
Key: 171520 Value: 0
Key: 176000 Value: 0
Key: 175936 Value: 0
Key: 176064 Value: 0
Key: 183296 Value: 0
Key: 178560 Value: 0
Key: 178624 Value: 0
Key: 178816 Value: 0
Key: 171456 Value: 0
Key: 171392 Value: 0
Key: 171264 Value: 0
Key: 171328 Value: 0
Key: 183232 Value: 0
Key: 222464 Value: 0
Key: 229312 Value: 0
Key: 177280 Value: 0
Key: 174528 Value: 0
Key: 219264 Value: 0
Key: 177920 Value: 0
Key: 171712 Value: 0
Key: 175296 Value: 0
Key: 182848 Value: 0
Key: 217920 Value: 0
Key: 174464 Value: 0
Key: 228608 Value: 0
Key: 176704 Value: 0
Key: 182912 Value: 0
Key: 218496 Value: 0
Key: 182400 Value: 0
Key: 183168 Value: 0
Key: 177152 Value: 0
Key: 177344 Value: 0
Key: 171136 Value: 0
Key: 218432 Value: 0
Key: 181184 Value: 0
Key: 218112 Value: 0
Key: 174656 Value: 0
Key: 174592 Value: 0
Key: 218048 Value: 0
Key: 249856 Value: 0
Key: 175360 Value: 0
Key: 183104 Value: 0
Key: 217792 Value: 0
Key: 182784 Value: 0
Key: 176576 Value: 0
Key: 182592 Value: 0
Key: 222976 Value: 0
Key: 218304 Value: 0
Key: 174848 Value: 0
Key: 171648 Value: 0
Key: 177856 Value: 0
Key: 182976 Value: 0
Key: 219072 Value: 0
Key: 175616 Value: 0
Key: 217536 Value: 0
Key: 182464 Value: 0
Key: 182656 Value: 0
Key: 176448 Value: 0
Key: 179456 Value: 0
Key: 182528 Value: 0
Key: 182720 Value: 0
Key: 176512 Value: 0
Key: 174912 Value: 0
Key: 218368 Value: 0
Key: 177216 Value: 0
Key: 178688 Value: 0
Key: 228352 Value: 0
Key: 177408 Value: 0
Key: 171200 Value: 0
Key: 7872 Value: 0
Key: 182336 Value: 0
Key: 217088 Value: 0
Key: 217856 Value: 0
Key: 217152 Value: 0
Key: 175232 Value: 0
Key: 255936 Value: 0
Key: 218176 Value: 0
Key: 218240 Value: 0
Key: 176832 Value: 0
Key: 171520 Value: 0
Key: 176000 Value: 0
Key: 175936 Value: 0
Key: 176064 Value: 0
Key: 183296 Value: 0
Key: 178560 Value: 0
Key: 178624 Value: 0
Key: 178816 Value: 0
Key: 171456 Value: 0
Key: 171392 Value: 0
Key: 171264 Value: 0
Key: 171328 Value: 0
Key: 183232 Value: 0
Key: 222464 Value: 0
Key: 229312 Value: 0
Key: 177280 Value: 0
Key: 174528 Value: 0
Key: 219264 Value: 0
Key: 177920 Value: 0
Key: 171712 Value: 0
Key: 175296 Value: 0
Key: 182848 Value: 0
Key: 217920 Value: 0
Key: 174464 Value: 0
Key: 228608 Value: 0
Key: 176704 Value: 0
Key: 182912 Value: 0
Key: 218496 Value: 0
Key: 182400 Value: 0
Key: 183168 Value: 0
Key: 177152 Value: 0
Key: 177344 Value: 0
Key: 171136 Value: 0
Key: 218432 Value: 0
Key: 181184 Value: 0
Key: 218112 Value: 0
Key: 174656 Value: 0
Key: 174592 Value: 0
Key: 218048 Value: 0
Key: 249856 Value: 0
Key: 175360 Value: 0
Key: 176896 Value: 1
Key: 183104 Value: 0
Key: 217792 Value: 0
Key: 182784 Value: 0
Key: 176576 Value: 0
Key: 182592 Value: 0
Key: 222976 Value: 0
Key: 218304 Value: 0
Key: 174848 Value: 0
Key: 171648 Value: 0
Key: 177856 Value: 0
Key: 182976 Value: 0
Key: 219072 Value: 0
Key: 175616 Value: 0
Key: 217536 Value: 0
Key: 182464 Value: 0
Key: 182656 Value: 0
Key: 176448 Value: 0
Key: 179456 Value: 0
Key: 182528 Value: 0
Key: 182720 Value: 0
Key: 176512 Value: 0
Key: 174912 Value: 0
Key: 218368 Value: 0
Key: 177216 Value: 0
Key: 178688 Value: 0
Key: 228352 Value: 0
Key: 177408 Value: 0
Key: 171200 Value: 0
Key: 7872 Value: 0
Key: 182336 Value: 0
Key: 217088 Value: 0
Key: 217856 Value: 0
Key: 217152 Value: 0
Key: 175232 Value: 0
Key: 255936 Value: 0
Key: 218176 Value: 0
Key: 218240 Value: 0
Key: 176832 Value: 0
Key: 171520 Value: 0
Key: 176000 Value: 0
Key: 175936 Value: 0
Key: 176064 Value: 0
Key: 183296 Value: 0
Key: 178560 Value: 0
Key: 178624 Value: 0
Key: 178816 Value: 0
Key: 171456 Value: 0
Key: 171392 Value: 0
Key: 171264 Value: 0
Key: 171328 Value: 0
Key: 183232 Value: 0
Key: 222464 Value: 0
Key: 229312 Value: 0
Key: 177280 Value: 0
Key: 174528 Value: 0
Key: 219264 Value: 0
Key: 177920 Value: 0
Key: 171712 Value: 0
Key: 175296 Value: 0
Key: 182848 Value: 0
Key: 217920 Value: 0
Key: 174464 Value: 0
Key: 228608 Value: 0
Key: 176704 Value: 0
Key: 182912 Value: 0
Key: 218496 Value: 0
Key: 182400 Value: 0
Key: 183168 Value: 0
Key: 177152 Value: 0
Key: 177344 Value: 0
Key: 171136 Value: 0
Key: 218432 Value: 0
Key: 181184 Value: 0
Key: 218112 Value: 0
Key: 174656 Value: 0
Key: 174592 Value: 0
Key: 218048 Value: 0
Key: 249856 Value: 0
Key: 175360 Value: 0
Key: 176896 Value: 0
Key: 183104 Value: 0
Key: 217792 Value: 0
Key: 182784 Value: 0
Key: 176576 Value: 0
Key: 182592 Value: 0
Key: 222976 Value: 0
Key: 218304 Value: 0
Key: 174848 Value: 0
Key: 171648 Value: 1
Key: 177856 Value: 0
Key: 182976 Value: 0
Key: 219072 Value: 0
Key: 175616 Value: 0
Key: 217536 Value: 0
Key: 182464 Value: 0
Key: 182656 Value: 0
Key: 176448 Value: 0
Key: 179456 Value: 0
Key: 182528 Value: 0
Key: 182720 Value: 0
Key: 176512 Value: 0
Key: 174912 Value: 0
Key: 218368 Value: 0
Key: 177216 Value: 0
Key: 178688 Value: 0
Key: 228352 Value: 0
Key: 177408 Value: 0
Key: 171200 Value: 0
Key: 7872 Value: 0
Key: 182336 Value: 0
Key: 217088 Value: 0
Key: 217856 Value: 0
Key: 217152 Value: 0
Key: 175232 Value: 0
Key: 255936 Value: 0
Key: 218176 Value: 0
Key: 218240 Value: 0
Key: 176832 Value: 0
Key: 171520 Value: 0
Key: 176000 Value: 0
Key: 175936 Value: 0
Key: 176064 Value: 0
Key: 183296 Value: 0
Key: 178560 Value: 0
Key: 178624 Value: 0
Key: 178816 Value: 0
Key: 171456 Value: 0
Key: 177600 Value: 1
Key: 171392 Value: 0
Key: 171264 Value: 0
Key: 171328 Value: 0
Key: 183232 Value: 0
Key: 222464 Value: 0
Key: 229312 Value: 0
Key: 177280 Value: 0
Key: 174528 Value: 0
Key: 219264 Value: 0
Key: 177920 Value: 0
Key: 171712 Value: 0
Key: 175296 Value: 0
Key: 182848 Value: 0
Key: 217920 Value: 0
Key: 174464 Value: 0
Key: 228608 Value: 0
Key: 176704 Value: 0
Key: 182912 Value: 0
Key: 218496 Value: 0
Key: 182400 Value: 0
Key: 183168 Value: 0
Key: 177152 Value: 0
Key: 177344 Value: 0
Key: 171136 Value: 0
Key: 218432 Value: 0
Key: 181184 Value: 0
Key: 218112 Value: 0
Key: 174656 Value: 0
Key: 174592 Value: 0
Key: 218048 Value: 0
Key: 249856 Value: 0
Key: 175360 Value: 0
Key: 176896 Value: 0
Key: 183104 Value: 0
Key: 217792 Value: 0
Key: 182784 Value: 0
Key: 176576 Value: 0
Key: 182592 Value: 0
Key: 222976 Value: 0
Key: 218304 Value: 0
Key: 174848 Value: 0
Key: 171648 Value: 0
Key: 177856 Value: 0
Key: 182976 Value: 0
Key: 219072 Value: 0
Key: 175616 Value: 0
Key: 217536 Value: 0
Key: 182464 Value: 0
Key: 182656 Value: 0
Key: 176448 Value: 0
Key: 179456 Value: 0
Key: 182528 Value: 0
Key: 182720 Value: 0
Key: 176512 Value: 0
Key: 174912 Value: 0
Key: 218368 Value: 0
Key: 177216 Value: 0
Key: 178688 Value: 0
Key: 228352 Value: 0
Key: 177408 Value: 0
Key: 171200 Value: 0
Key: 7872 Value: 0
Key: 182336 Value: 0
Key: 217088 Value: 0
Key: 217856 Value: 0
Key: 217152 Value: 0
Key: 175232 Value: 0
Key: 255936 Value: 0
Key: 218176 Value: 0
Key: 218240 Value: 0
Key: 176832 Value: 0
Key: 171520 Value: 0
Key: 176000 Value: 0
Key: 175936 Value: 0
Key: 176064 Value: 0
Key: 183296 Value: 0
Key: 178560 Value: 0
Key: 178624 Value: 0
Key: 178816 Value: 0
Key: 171456 Value: 0
Key: 177600 Value: 0
Key: 171392 Value: 0
Key: 171264 Value: 0
Key: 171328 Value: 0
Key: 183232 Value: 0
Key: 222464 Value: 0
Key: 229312 Value: 0
Key: 177280 Value: 0
Key: 174528 Value: 0
Key: 219264 Value: 0
Key: 177920 Value: 0
Key: 171712 Value: 0
Key: 175296 Value: 0
Key: 182848 Value: 0
Key: 217920 Value: 0
Key: 174464 Value: 0
Key: 228608 Value: 0
Key: 176704 Value: 0
Key: 182912 Value: 0
Key: 218496 Value: 0
Key: 182400 Value: 0
Key: 183168 Value: 0
Key: 183360 Value: 1
Key: 177152 Value: 0
Key: 177344 Value: 0
Key: 171136 Value: 0
Key: 218432 Value: 0
Key: 181184 Value: 0
Key: 218112 Value: 0
Key: 174656 Value: 0
Key: 174592 Value: 0
Key: 218048 Value: 0
Key: 249856 Value: 0
Key: 175360 Value: 0
Key: 176896 Value: 0
Key: 183104 Value: 0
Key: 217792 Value: 0
Key: 182784 Value: 0
Key: 176576 Value: 0
Key: 182592 Value: 0
Key: 222976 Value: 0
Key: 218304 Value: 0
Key: 174848 Value: 0
Key: 171648 Value: 0
Key: 177856 Value: 0
Key: 182976 Value: 0
Key: 219072 Value: 0
Key: 175616 Value: 0
Key: 217536 Value: 0
Key: 182464 Value: 0
Key: 182656 Value: 0
Key: 176448 Value: 0
Key: 179456 Value: 0
Key: 182528 Value: 0
Key: 182720 Value: 0
Key: 176512 Value: 0
Key: 174912 Value: 0
Key: 218368 Value: 0
Key: 177216 Value: 0
Key: 178688 Value: 0
Key: 228352 Value: 0
Key: 177408 Value: 0
Key: 171200 Value: 0
Key: 7872 Value: 0
Key: 182336 Value: 0
Key: 217088 Value: 0
Key: 217856 Value: 0
Key: 217152 Value: 0
Key: 175232 Value: 0
Key: 255936 Value: 0
Key: 218176 Value: 0
Key: 218240 Value: 0
Key: 243456 Value: 1
Key: 176832 Value: 0
Key: 171520 Value: 0
Key: 176000 Value: 0
Key: 175936 Value: 0
Key: 176064 Value: 0
Key: 183296 Value: 0
Key: 178560 Value: 0
Key: 178624 Value: 0
Key: 178816 Value: 0
Key: 171456 Value: 0
Key: 177600 Value: 0
Key: 171392 Value: 0
Key: 171264 Value: 0
Key: 171328 Value: 0
Key: 183232 Value: 0
Key: 222464 Value: 0
Key: 229312 Value: 0
Key: 177280 Value: 0
Key: 174528 Value: 0
Key: 219264 Value: 0
Key: 177920 Value: 0
Key: 171712 Value: 0
Key: 175296 Value: 0
Key: 182848 Value: 0
Key: 217920 Value: 0
Key: 174464 Value: 0
Key: 228608 Value: 0
Key: 176704 Value: 0
Key: 182912 Value: 0
Key: 218496 Value: 0
Key: 182400 Value: 0
Key: 183168 Value: 0
Key: 183360 Value: 0
Key: 177152 Value: 0
Key: 177344 Value: 0
Key: 171136 Value: 0
Key: 218432 Value: 0
Key: 181184 Value: 0
Key: 218112 Value: 0
Key: 174656 Value: 0
Key: 174592 Value: 0
Key: 218048 Value: 0
Key: 249856 Value: 0
Key: 175360 Value: 0
Key: 176896 Value: 0
Key: 183104 Value: 0
Key: 217792 Value: 0
Key: 182784 Value: 0
Key: 176576 Value: 0
Key: 182592 Value: 0
Key: 222976 Value: 0
Key: 218304 Value: 0
Key: 174848 Value: 0
Key: 171648 Value: 0
Key: 177856 Value: 0
Key: 182976 Value: 0
Key: 219072 Value: 0
Key: 175616 Value: 0
Key: 217536 Value: 0
Key: 182464 Value: 0
Key: 182656 Value: 0
Key: 176448 Value: 0
Key: 179456 Value: 0
Key: 182528 Value: 0
Key: 182720 Value: 0
Key: 176512 Value: 0
Key: 174912 Value: 0
Key: 218368 Value: 0
Key: 177216 Value: 0
Key: 178688 Value: 0
Key: 228352 Value: 0
Key: 177408 Value: 0
Key: 171200 Value: 0
Key: 7872 Value: 0
Key: 182336 Value: 0
Key: 217088 Value: 0
Key: 217856 Value: 0
Key: 217152 Value: 0
Key: 175232 Value: 0
Key: 255936 Value: 0
Key: 218176 Value: 0
Key: 218240 Value: 0
Key: 243456 Value: 0
Key: 176832 Value: 0
Key: 171520 Value: 0
Key: 176000 Value: 0
Key: 175936 Value: 0
Key: 176064 Value: 0
Key: 183296 Value: 0
Key: 178560 Value: 0
Key: 178624 Value: 0
Key: 178816 Value: 0
Key: 171456 Value: 0
Key: 177600 Value: 0
Key: 171392 Value: 0
Key: 171264 Value: 0
Key: 171328 Value: 0
Key: 183232 Value: 0
Key: 222464 Value: 0
Key: 229312 Value: 0
Key: 177280 Value: 0
Key: 174528 Value: 0
Key: 219264 Value: 0
Key: 177920 Value: 0
Key: 171712 Value: 0
Key: 175296 Value: 0
Key: 182848 Value: 0
Key: 217920 Value: 0
Key: 174464 Value: 0
Key: 228608 Value: 0
Key: 176704 Value: 0
Key: 182912 Value: 0
Key: 218496 Value: 0
Key: 182400 Value: 0
Key: 183168 Value: 0
Key: 183360 Value: 0
Key: 177152 Value: 0
Key: 177344 Value: 0
Key: 171136 Value: 0
Key: 218432 Value: 0
Key: 181184 Value: 0
Key: 218112 Value: 0
Key: 174656 Value: 0
Key: 174592 Value: 0
Key: 218048 Value: 0
Key: 249856 Value: 0
Key: 175360 Value: 0
Key: 176896 Value: 0
Key: 183104 Value: 0
Key: 217792 Value: 0
Key: 182784 Value: 0
Key: 176576 Value: 0
Key: 182592 Value: 0
Key: 222976 Value: 0
Key: 218304 Value: 0
Key: 174848 Value: 0
Key: 171648 Value: 0
Key: 177856 Value: 0
Key: 182976 Value: 0
Key: 219072 Value: 0
Key: 175616 Value: 0
Key: 217536 Value: 0
Key: 182464 Value: 0
Key: 182656 Value: 0
Key: 176448 Value: 0
Key: 179456 Value: 0
Key: 182528 Value: 0
Key: 182720 Value: 0
Key: 176512 Value: 0
Key: 174912 Value: 0
Key: 218368 Value: 0
Key: 177216 Value: 0
Key: 178688 Value: 0
Key: 228352 Value: 0
Key: 177408 Value: 0
Key: 171200 Value: 0
Key: 7872 Value: 0
Key: 182336 Value: 0
Key: 217088 Value: 0
Key: 217856 Value: 0
Key: 217152 Value: 0
Key: 175232 Value: 0
Key: 255936 Value: 1
Key: 218176 Value: 0
Key: 218240 Value: 0
Key: 243456 Value: 0
Key: 176832 Value: 0
Key: 171520 Value: 0
Key: 176000 Value: 0
Key: 175936 Value: 0
Key: 176064 Value: 0
Key: 183296 Value: 0
Key: 178560 Value: 0
Key: 178624 Value: 0
Key: 178816 Value: 0
Key: 171456 Value: 0
Key: 177600 Value: 0
Key: 171392 Value: 0
Key: 171264 Value: 0
Key: 171328 Value: 0
Key: 183232 Value: 0
Key: 222464 Value: 0
Key: 229312 Value: 0
Key: 177280 Value: 0
Key: 174528 Value: 0
Key: 219264 Value: 0
Key: 177920 Value: 0
Key: 171712 Value: 0
[...]
Key: 218432 Value: 0
Key: 251392 Value: 0
Key: 174976 Value: 0
Key: 222080 Value: 0
Key: 171136 Value: 0
Key: 228288 Value: 0
Key: 177344 Value: 0
Key: 183552 Value: 0
Key: 177152 Value: 0
Key: 183360 Value: 0
Key: 183168 Value: 0
Key: 182400 Value: 0
Key: 218496 Value: 0
Key: 182912 Value: 0
Key: 176704 Value: 0
Key: 228608 Value: 0
Key: 174464 Value: 0
Key: 243392 Value: 0
Key: 217920 Value: 0
Key: 182848 Value: 0
Key: 175296 Value: 0
Key: 171712 Value: 0
Key: 228864 Value: 0
Key: 177920 Value: 0
Key: 219264 Value: 0
Key: 174528 Value: 0
Key: 177280 Value: 0
Key: 183488 Value: 0
Key: 229312 Value: 0
Key: 183232 Value: 0
Key: 171328 Value: 0
Key: 222208 Value: 0
Key: 171264 Value: 0
Key: 222336 Value: 0
Key: 171392 Value: 0
Key: 177600 Value: 0
Key: 171456 Value: 0
Key: 178816 Value: 0
Key: 178624 Value: 0
Key: 178560 Value: 0
Key: 183296 Value: 0
Key: 227008 Value: 0
Key: 176064 Value: 0
Key: 175936 Value: 0
Key: 176000 Value: 0
Key: 222464 Value: 1
Key: 171520 Value: 0
Key: 176832 Value: 0
Key: 256192 Value: 0
Key: 217984 Value: 0
Key: 243456 Value: 0
Key: 175168 Value: 0
Key: 222720 Value: 0
Key: 171776 Value: 0
Key: 222848 Value: 0
Key: 171904 Value: 0
Key: 219200 Value: 0
Key: 219136 Value: 0
Key: 222912 Value: 0
Key: 171968 Value: 0
Key: 222976 Value: 0
Key: 172032 Value: 0
Key: 176640 Value: 0
Key: 175488 Value: 0
Key: 177472 Value: 0
Key: 559040 Value: 0
Key: 427968 Value: 0
Key: 229120 Value: 0
Key: 181120 Value: 0
Key: 181952 Value: 0
Key: 257792 Value: 0
Key: 181376 Value: 0
Key: 181312 Value: 0
Key: 181248 Value: 0
Key: 181440 Value: 0
Key: 181568 Value: 0
Key: 181504 Value: 0
Key: 181632 Value: 0
Key: 227136 Value: 0
Key: 181696 Value: 0
Key: 227072 Value: 0
Key: 182080 Value: 0
Key: 182016 Value: 0
Key: 229184 Value: 0
Key: 251456 Value: 0
Key: 182144 Value: 0
Key: 249984 Value: 0
Key: 509184 Value: 0
Key: 228992 Value: 0
Key: 229056 Value: 0
Key: 183040 Value: 0
Key: 228928 Value: 0
Key: 8192 Value: 0
Key: 250176 Value: 0
Key: 429824 Value: 0
Key: 228736 Value: 0
Key: 178752 Value: 0
Key: 228480 Value: 0
Key: 217280 Value: 0
Key: 174400 Value: 0
Key: 182208 Value: 0
Key: 182272 Value: 0
Key: 8256 Value: 0
Key: 244160 Value: 0
Key: 244224 Value: 0
Key: 8128 Value: 0
Key: 224320 Value: 0
Key: 217344 Value: 0
Key: 183424 Value: 0
Key: 217216 Value: 0
Key: 176768 Value: 0
Key: 172096 Value: 0
Key: 183744 Value: 0
Key: 171072 Value: 0
Key: 183680 Value: 0
Key: 256448 Value: 0
Key: 218240 Value: 0
Key: 174784 Value: 0
Key: 218176 Value: 0
Key: 174720 Value: 0
Key: 217728 Value: 0
Key: 255936 Value: 0
Key: 175232 Value: 0
Key: 217152 Value: 0
Key: 243328 Value: 0
Key: 281536 Value: 0
Key: 217856 Value: 0
Key: 178880 Value: 0
Key: 217088 Value: 0
Key: 182336 Value: 0
Key: 222144 Value: 0
Key: 171200 Value: 0
Key: 183616 Value: 0
Key: 177408 Value: 0
Key: 228352 Value: 0
Key: 509824 Value: 0
Key: 178688 Value: 0
Key: 177216 Value: 0
Key: 218368 Value: 0
Key: 251328 Value: 0
Key: 174912 Value: 0
Key: 418496 Value: 0
Key: 176512 Value: 0
Key: 182720 Value: 0
Key: 182528 Value: 0
Key: 179456 Value: 0
Key: 176448 Value: 0
Key: 182656 Value: 0
Key: 182464 Value: 0
Key: 252672 Value: 0
Key: 176256 Value: 0
Key: 217536 Value: 0
Key: 175616 Value: 0
Key: 219072 Value: 0
Key: 182976 Value: 0
Key: 228800 Value: 0
Key: 177856 Value: 0
Key: 222592 Value: 1
Key: 171648 Value: 0
Key: 174848 Value: 0
Key: 218304 Value: 0
Key: 182592 Value: 0
Key: 176576 Value: 0
Key: 182784 Value: 0
Key: 217792 Value: 0
Key: 183104 Value: 0
Key: 418880 Value: 0
Key: 176896 Value: 0
Key: 175360 Value: 0
Key: 7872 Value: 0
Key: 249856 Value: 0
Key: 218048 Value: 0
Key: 174592 Value: 0
Key: 174656 Value: 0
Key: 218112 Value: 0
Key: 181184 Value: 0
Key: 218432 Value: 0
Key: 251392 Value: 0
Key: 174976 Value: 0
Key: 222080 Value: 0
Key: 171136 Value: 0
Key: 228288 Value: 0
Key: 177344 Value: 0
Key: 183552 Value: 0
Key: 177152 Value: 0
Key: 183360 Value: 0
Key: 183168 Value: 0
Key: 182400 Value: 0
Key: 218496 Value: 0
Key: 182912 Value: 0
Key: 176704 Value: 0
Key: 228608 Value: 0
Key: 174464 Value: 0
Key: 243392 Value: 0
Key: 217920 Value: 0
Key: 182848 Value: 0
Key: 175296 Value: 0
Key: 171712 Value: 0
Key: 228864 Value: 0
Key: 177920 Value: 0
Key: 219264 Value: 0
Key: 174528 Value: 0
Key: 177280 Value: 0
Key: 183488 Value: 0
Key: 229312 Value: 0
Key: 183232 Value: 0
Key: 171328 Value: 0
Key: 222208 Value: 0
Key: 171264 Value: 0
Key: 222336 Value: 0
Key: 171392 Value: 0
Key: 177600 Value: 0
Key: 171456 Value: 0
Key: 178816 Value: 0
Key: 178624 Value: 0
Key: 178560 Value: 0
Key: 183296 Value: 0
Key: 227008 Value: 0
Key: 176064 Value: 0
Key: 175936 Value: 0
Key: 176000 Value: 0
Key: 222464 Value: 0
Key: 171520 Value: 0
Key: 176832 Value: 0
Key: 256192 Value: 0
Key: 217984 Value: 0
Key: 243456 Value: 0
Key: 175168 Value: 0
Key: 222720 Value: 0
Key: 171776 Value: 0
Key: 222848 Value: 0
Key: 171904 Value: 0
Key: 219200 Value: 0
Key: 219136 Value: 0
Key: 222912 Value: 0
Key: 171968 Value: 0
Key: 222976 Value: 0
Key: 172032 Value: 0
Key: 252288 Value: 1
Key: 176640 Value: 0
Key: 175488 Value: 0
Key: 177472 Value: 0
Key: 559040 Value: 0
Key: 427968 Value: 0
Key: 229120 Value: 0
Key: 181120 Value: 0
Key: 181952 Value: 0
Key: 257792 Value: 0
Key: 181376 Value: 0
Key: 181312 Value: 0
Key: 181248 Value: 0
Key: 181440 Value: 0
Key: 181568 Value: 0
Key: 181504 Value: 0
Key: 181632 Value: 0
Key: 227136 Value: 0
Key: 181696 Value: 0
Key: 227072 Value: 0
Key: 182080 Value: 0
Key: 182016 Value: 0
Key: 229184 Value: 0
Key: 251456 Value: 0
Key: 182144 Value: 0
Key: 249984 Value: 0
Key: 509184 Value: 0
Key: 228992 Value: 0
Key: 229056 Value: 0
Key: 183040 Value: 0
Key: 228928 Value: 0
Key: 8192 Value: 0
Key: 250176 Value: 0
Key: 429824 Value: 0
Key: 228736 Value: 0
Key: 178752 Value: 0
Key: 228480 Value: 0
Key: 217280 Value: 0
Key: 174400 Value: 0
Key: 182208 Value: 0
Key: 182272 Value: 0
Key: 8256 Value: 0
Key: 244160 Value: 0
Key: 244224 Value: 0
Key: 8128 Value: 0
Key: 224320 Value: 0
Key: 217344 Value: 0
Key: 183424 Value: 0
Key: 217216 Value: 0
Key: 176768 Value: 0
Key: 172096 Value: 0
Key: 183744 Value: 0
Key: 171072 Value: 0
Key: 183680 Value: 0
Key: 256448 Value: 0
Key: 218240 Value: 0
Key: 174784 Value: 0
Key: 218176 Value: 0
Key: 174720 Value: 0
Key: 217728 Value: 0
Key: 255936 Value: 0
Key: 175232 Value: 0
Key: 217152 Value: 0
Key: 243328 Value: 0
Key: 281536 Value: 0
Key: 217856 Value: 0
Key: 178880 Value: 0
Key: 217088 Value: 0
Key: 182336 Value: 0
Key: 222144 Value: 0
Key: 171200 Value: 0
Key: 183616 Value: 0
Key: 177408 Value: 0
Key: 228352 Value: 0
Key: 509824 Value: 0
Key: 178688 Value: 0
Key: 177216 Value: 0
Key: 218368 Value: 0
Key: 251328 Value: 0
Key: 174912 Value: 0
Key: 418496 Value: 0
Key: 176512 Value: 0
Key: 182720 Value: 0
Key: 182528 Value: 0
Key: 179456 Value: 0
Key: 176448 Value: 0
Key: 182656 Value: 0
Key: 182464 Value: 0
Key: 252672 Value: 0
Key: 176256 Value: 0
Key: 217536 Value: 0
Key: 175616 Value: 0
Key: 219072 Value: 0
Key: 182976 Value: 0
Key: 228800 Value: 0
Key: 177856 Value: 0
Key: 222592 Value: 0
Key: 171648 Value: 0
Key: 174848 Value: 0
Key: 218304 Value: 0
Key: 182592 Value: 0
Key: 176576 Value: 0
Key: 182784 Value: 0
Key: 217792 Value: 0
Key: 183104 Value: 0
Key: 418880 Value: 0
Key: 176896 Value: 0
Key: 175360 Value: 0
Key: 7872 Value: 0
Key: 249856 Value: 0
Key: 218048 Value: 0
Key: 174592 Value: 0
Key: 174656 Value: 0
Key: 218112 Value: 0
Key: 181184 Value: 0
Key: 218432 Value: 0
Key: 251392 Value: 0
Key: 174976 Value: 0
Key: 222080 Value: 0
Key: 171136 Value: 0
Key: 228288 Value: 0
Key: 177344 Value: 0
Key: 183552 Value: 0
Key: 177152 Value: 0
Key: 183360 Value: 0
Key: 183168 Value: 0
Key: 182400 Value: 0
Key: 218496 Value: 0
Key: 182912 Value: 0
Key: 176704 Value: 0
Key: 228608 Value: 0
Key: 174464 Value: 0
Key: 243392 Value: 0
Key: 217920 Value: 0
Key: 182848 Value: 0
Key: 175296 Value: 0
Key: 171712 Value: 0
Key: 228864 Value: 0
Key: 177920 Value: 0
Key: 219264 Value: 0
Key: 174528 Value: 0
Key: 177280 Value: 0
Key: 183488 Value: 0
Key: 229312 Value: 0
Key: 183232 Value: 0
Key: 171328 Value: 0
Key: 222208 Value: 0
Key: 171264 Value: 0
Key: 222336 Value: 0
Key: 171392 Value: 0
Key: 177600 Value: 0
Key: 171456 Value: 0
Key: 178816 Value: 0
Key: 178624 Value: 0
Key: 178560 Value: 0
Key: 183296 Value: 0
Key: 227008 Value: 0
Key: 176064 Value: 0
Key: 175936 Value: 0
Key: 176000 Value: 0
Key: 222464 Value: 0
Key: 171520 Value: 0
Key: 176832 Value: 0
Key: 256192 Value: 0
Key: 217984 Value: 0
Key: 243456 Value: 0
Key: 175168 Value: 0
Key: 222720 Value: 0
Key: 171776 Value: 0
Key: 222848 Value: 0
Key: 171904 Value: 0
Key: 219200 Value: 0
Key: 219136 Value: 0
Key: 222912 Value: 0
Key: 171968 Value: 0
Key: 222976 Value: 0
Key: 172032 Value: 0
Key: 252224 Value: 1
Key: 252288 Value: 0
Key: 176640 Value: 0
Key: 175488 Value: 0
Key: 177472 Value: 0
Key: 559040 Value: 0
Key: 427968 Value: 0
Key: 229120 Value: 0
Key: 181120 Value: 0
Key: 181952 Value: 0
Key: 257792 Value: 0
Key: 181376 Value: 0
Key: 181312 Value: 0
Key: 181248 Value: 0
Key: 181440 Value: 0
Key: 181568 Value: 0
Key: 181504 Value: 0
Key: 181632 Value: 0
Key: 227136 Value: 0
Key: 181696 Value: 0
Key: 227072 Value: 0
Key: 182080 Value: 0
Key: 182016 Value: 0
Key: 229184 Value: 0
Key: 251456 Value: 0
Key: 182144 Value: 0
Key: 249984 Value: 0
Key: 509184 Value: 0
Key: 228992 Value: 0
Key: 229056 Value: 0
Key: 183040 Value: 0
Key: 228928 Value: 0
Key: 8192 Value: 0
Key: 250176 Value: 0
Key: 429824 Value: 0
Key: 228736 Value: 0
Key: 178752 Value: 0
Key: 228480 Value: 0
Key: 217280 Value: 0
Key: 174400 Value: 0
Key: 182208 Value: 0
Key: 182272 Value: 0
Key: 8256 Value: 0
Key: 244160 Value: 0
Key: 244224 Value: 0
Key: 8128 Value: 0
Key: 224320 Value: 0
Key: 217344 Value: 0
Key: 183424 Value: 0
Key: 217216 Value: 0
Key: 176768 Value: 0
Key: 172096 Value: 0
Key: 183744 Value: 0
Key: 171072 Value: 0
Key: 183680 Value: 0
Key: 256448 Value: 0
Key: 218240 Value: 0
Key: 174784 Value: 0
Key: 218176 Value: 0
Key: 174720 Value: 0
Key: 217728 Value: 0
Key: 255936 Value: 0
Key: 175232 Value: 0
Key: 217152 Value: 0
Key: 243328 Value: 0
Key: 281536 Value: 0
Key: 217856 Value: 0
Key: 178880 Value: 0
Key: 217088 Value: 0
Key: 182336 Value: 0
Key: 222144 Value: 0
Key: 171200 Value: 0
Key: 183616 Value: 0
Key: 177408 Value: 0
Key: 228352 Value: 0
Key: 509824 Value: 0
Key: 178688 Value: 0
Key: 177216 Value: 0
Key: 218368 Value: 0
Key: 251328 Value: 0
Key: 174912 Value: 0
Key: 418496 Value: 0
Key: 176512 Value: 0
Key: 182720 Value: 0
Key: 182528 Value: 0
Key: 179456 Value: 0
Key: 176448 Value: 0
Key: 182656 Value: 0
Key: 182464 Value: 0
Key: 252672 Value: 0
Key: 176256 Value: 0
Key: 217536 Value: 0
Key: 175616 Value: 0
Key: 219072 Value: 0
Key: 182976 Value: 0
Key: 228800 Value: 0
Key: 177856 Value: 0
Key: 222592 Value: 0
Key: 171648 Value: 0
Key: 174848 Value: 0
Key: 218304 Value: 0
Key: 182592 Value: 0
Key: 176576 Value: 0
Key: 182784 Value: 0
Key: 217792 Value: 0
Key: 183104 Value: 0
Key: 418880 Value: 0
Key: 176896 Value: 0
Key: 175360 Value: 0
Key: 7872 Value: 0
Key: 249856 Value: 0
Key: 218048 Value: 0
Key: 174592 Value: 0
Key: 174656 Value: 0
Key: 218112 Value: 0
Key: 181184 Value: 0
Key: 218432 Value: 0
Key: 251392 Value: 0
Key: 174976 Value: 0
Key: 222080 Value: 0
Key: 171136 Value: 0
Key: 228288 Value: 0
Key: 177344 Value: 0
Key: 183552 Value: 0
Key: 177152 Value: 0
Key: 183360 Value: 0
Key: 183168 Value: 0
Key: 182400 Value: 0
Key: 218496 Value: 0
Key: 182912 Value: 0
Key: 176704 Value: 0
Key: 228608 Value: 0
Key: 174464 Value: 0
Key: 243392 Value: 0
Key: 217920 Value: 0
Key: 182848 Value: 0
Key: 175296 Value: 0
Key: 171712 Value: 0
Key: 228864 Value: 0
Key: 177920 Value: 0
Key: 219264 Value: 0
Key: 174528 Value: 0
Key: 177280 Value: 0
Key: 183488 Value: 0
Key: 229312 Value: 0
Key: 183232 Value: 0
Key: 171328 Value: 0
Key: 222208 Value: 0
Key: 171264 Value: 0
Key: 222336 Value: 0
Key: 171392 Value: 0
Key: 177600 Value: 0
Key: 171456 Value: 0
Key: 178816 Value: 0
Key: 178624 Value: 0
Key: 178560 Value: 0
Key: 183296 Value: 0
Key: 227008 Value: 0
Key: 176064 Value: 0
Key: 175936 Value: 0
Key: 176000 Value: 0
Key: 222464 Value: 0
Key: 171520 Value: 0
Key: 176832 Value: 0
Key: 256192 Value: 0
Key: 217984 Value: 0
Key: 243456 Value: 0
Key: 175168 Value: 0
Key: 222720 Value: 0
Key: 171776 Value: 0
Key: 222848 Value: 0
Key: 171904 Value: 0
Key: 219200 Value: 0
Key: 219136 Value: 0
Key: 222912 Value: 0
Key: 171968 Value: 0
Key: 222976 Value: 0
Key: 172032 Value: 0
Key: 252224 Value: 0
Key: 252288 Value: 0
Key: 176640 Value: 0
Key: 175488 Value: 0
Key: 177472 Value: 0
Key: 559040 Value: 0
Key: 427968 Value: 0
Key: 229120 Value: 0
Key: 181120 Value: 0
Key: 181952 Value: 0
Key: 257792 Value: 0
Key: 181376 Value: 0
Key: 181312 Value: 0
Key: 181248 Value: 0
Key: 181440 Value: 0
Key: 181568 Value: 0
Key: 181504 Value: 0
Key: 181632 Value: 0
Key: 227136 Value: 0
Key: 181696 Value: 0
Key: 227072 Value: 1
Key: 182080 Value: 0
Key: 182016 Value: 0
Key: 229184 Value: 0
Key: 251456 Value: 0
Key: 182144 Value: 0
Key: 249984 Value: 0
Key: 509184 Value: 0
Key: 228992 Value: 0
Key: 229056 Value: 0
Key: 183040 Value: 0
Key: 228928 Value: 0
Key: 8192 Value: 0
Key: 250176 Value: 0
Key: 429824 Value: 0
Key: 228736 Value: 0
Key: 178752 Value: 0
Key: 228480 Value: 0
Key: 217280 Value: 0
Key: 174400 Value: 0
Key: 182208 Value: 0
Key: 182272 Value: 0
Key: 8256 Value: 0
Key: 244160 Value: 0
Key: 244224 Value: 0
Key: 8128 Value: 0
Key: 224320 Value: 0
Key: 217344 Value: 0
Key: 183424 Value: 0
Key: 217216 Value: 0
Key: 176768 Value: 0
Key: 172096 Value: 0
Key: 183744 Value: 0
Key: 171072 Value: 0
Key: 183680 Value: 0
Key: 256448 Value: 0
Key: 218240 Value: 0
Key: 174784 Value: 0
Key: 218176 Value: 0
Key: 174720 Value: 0
Key: 217728 Value: 0
Key: 255936 Value: 0
Key: 175232 Value: 0
Key: 217152 Value: 0
Key: 243328 Value: 0
Key: 281536 Value: 0
Key: 217856 Value: 0
Key: 178880 Value: 0
Key: 217088 Value: 0
Key: 182336 Value: 0
Key: 222144 Value: 0
Key: 171200 Value: 0
Key: 183616 Value: 0
Key: 177408 Value: 0
Key: 228352 Value: 0
Key: 509824 Value: 0
Key: 178688 Value: 0
Key: 177216 Value: 0
Key: 218368 Value: 0
Key: 251328 Value: 0
Key: 174912 Value: 0
Key: 418496 Value: 0
Key: 176512 Value: 0
Key: 182720 Value: 0
Key: 182528 Value: 0
Key: 179456 Value: 0
Key: 176448 Value: 0
Key: 182656 Value: 0
Key: 182464 Value: 0
Key: 252672 Value: 0
Key: 176256 Value: 0
Key: 217536 Value: 0
Key: 175616 Value: 0
Key: 219072 Value: 0
Key: 182976 Value: 0
Key: 228800 Value: 0
Key: 177856 Value: 0
Key: 222592 Value: 0
Key: 171648 Value: 0
Key: 174848 Value: 0
Key: 218304 Value: 0
Key: 182592 Value: 0
Key: 176576 Value: 0
Key: 182784 Value: 0
Key: 217792 Value: 0
Key: 183104 Value: 0
Key: 418880 Value: 0
Key: 176896 Value: 0
Key: 175360 Value: 0
Key: 7872 Value: 0
Key: 249856 Value: 0
Key: 218048 Value: 0
Key: 174592 Value: 0
Key: 174656 Value: 0
Key: 218112 Value: 0
Key: 181184 Value: 0
Key: 218432 Value: 0
Key: 251392 Value: 0
Key: 174976 Value: 0
Key: 222080 Value: 0
Key: 171136 Value: 0
Key: 228288 Value: 0
Key: 177344 Value: 0
Key: 183552 Value: 0
Key: 177152 Value: 0
Key: 183360 Value: 0
Key: 183168 Value: 0
Key: 182400 Value: 0
Key: 218496 Value: 0
Key: 182912 Value: 0
Key: 176704 Value: 0
Key: 228608 Value: 0
Key: 174464 Value: 0
Key: 243392 Value: 0
Key: 217920 Value: 0
Key: 182848 Value: 0
Key: 175296 Value: 0
Key: 171712 Value: 0
Key: 228864 Value: 0
Key: 177920 Value: 0
Key: 219264 Value: 0
Key: 174528 Value: 0
Key: 177280 Value: 0
Key: 183488 Value: 0
Key: 229312 Value: 0
Key: 183232 Value: 0
Key: 171328 Value: 0
Key: 222208 Value: 0
Key: 171264 Value: 0
Key: 222336 Value: 0
Key: 171392 Value: 0
Key: 177600 Value: 0
Key: 171456 Value: 0
Key: 178816 Value: 0
Key: 178624 Value: 0
Key: 178560 Value: 0
Key: 183296 Value: 0
Key: 227008 Value: 0
Key: 176064 Value: 0
Key: 175936 Value: 0
Key: 176000 Value: 0
Key: 222464 Value: 0
Key: 171520 Value: 0
Key: 176832 Value: 0
Key: 256192 Value: 0
Key: 217984 Value: 0
Key: 243456 Value: 0
Key: 175168 Value: 0
Key: 222720 Value: 0
Key: 171776 Value: 0
Key: 222848 Value: 0
Key: 171904 Value: 0
Key: 219200 Value: 0
Key: 219136 Value: 0
Key: 222912 Value: 0
Key: 171968 Value: 0
Key: 222976 Value: 0
Key: 172032 Value: 0
Key: 252096 Value: 1
Key: 252224 Value: 0
Key: 252288 Value: 0
Key: 176640 Value: 0
Key: 175488 Value: 0
Key: 177472 Value: 0
Key: 559040 Value: 0
Key: 427968 Value: 0
Key: 229120 Value: 0
Key: 181120 Value: 0
Key: 181952 Value: 0
Key: 257792 Value: 0
Key: 181376 Value: 0
Key: 181312 Value: 0
Key: 181248 Value: 0
Key: 181440 Value: 0
Key: 181568 Value: 0
Key: 181504 Value: 0
Key: 181632 Value: 0
Key: 227136 Value: 0
Key: 181696 Value: 0
Key: 227072 Value: 0
Key: 182080 Value: 0
Key: 182016 Value: 0
Key: 229184 Value: 0
Key: 251456 Value: 0
Key: 182144 Value: 0
Key: 249984 Value: 0
Key: 509184 Value: 0
Key: 228992 Value: 0
Key: 229056 Value: 0
Key: 183040 Value: 0
Key: 228928 Value: 0
Key: 8192 Value: 0
Key: 250176 Value: 0
Key: 429824 Value: 0
Key: 228736 Value: 0
Key: 178752 Value: 0
Key: 228480 Value: 0
Key: 217280 Value: 0
Key: 174400 Value: 0
Key: 182208 Value: 0
Key: 182272 Value: 0
Key: 8256 Value: 0
Key: 244160 Value: 0
Key: 244224 Value: 0
Key: 8128 Value: 0
Key: 224320 Value: 0
Key: 217344 Value: 0
Key: 183424 Value: 0
Key: 217216 Value: 0
Key: 176768 Value: 0
Key: 172096 Value: 0
Key: 183744 Value: 0
Key: 171072 Value: 0
Key: 183680 Value: 0
Key: 256448 Value: 0
Key: 218240 Value: 0
Key: 174784 Value: 0
Key: 218176 Value: 0
Key: 174720 Value: 0
Key: 217728 Value: 0
Key: 255936 Value: 0
Key: 175232 Value: 0
Key: 217152 Value: 0
Key: 243328 Value: 0
Key: 281536 Value: 0
Key: 217856 Value: 0
Key: 178880 Value: 0
Key: 217088 Value: 0
Key: 182336 Value: 0
Key: 222144 Value: 0
Key: 171200 Value: 0
Key: 183616 Value: 0
Key: 177408 Value: 0
Key: 228352 Value: 0
Key: 509824 Value: 0
Key: 178688 Value: 0
Key: 177216 Value: 0
Key: 218368 Value: 0
Key: 251328 Value: 0
Key: 174912 Value: 0
Key: 418496 Value: 0
Key: 176512 Value: 0
Key: 182720 Value: 0
Key: 182528 Value: 0
Key: 179456 Value: 0
Key: 176448 Value: 0
Key: 182656 Value: 0
Key: 182464 Value: 0
Key: 252672 Value: 0
Key: 176256 Value: 0
Key: 217536 Value: 0
Key: 175616 Value: 0
Key: 219072 Value: 0
Key: 182976 Value: 0
Key: 228800 Value: 0
Key: 177856 Value: 0
Key: 222592 Value: 0
Key: 171648 Value: 0
Key: 174848 Value: 0
Key: 218304 Value: 0
Key: 182592 Value: 0
Key: 176576 Value: 0
Key: 182784 Value: 0
Key: 217792 Value: 0
Key: 183104 Value: 0
Key: 418880 Value: 0
Key: 176896 Value: 0
Key: 175360 Value: 0
Key: 7872 Value: 0
Key: 249856 Value: 0
Key: 218048 Value: 0
Key: 174592 Value: 0
Key: 174656 Value: 0
Key: 218112 Value: 0
Key: 181184 Value: 0
Key: 218432 Value: 0
Key: 251392 Value: 0
Key: 174976 Value: 0
Key: 222080 Value: 0
Key: 171136 Value: 0
Key: 228288 Value: 0
Key: 177344 Value: 0
Key: 183552 Value: 0
Key: 177152 Value: 0
Key: 183360 Value: 0
Key: 183168 Value: 0
Key: 182400 Value: 0
Key: 218496 Value: 0
Key: 182912 Value: 0
Key: 176704 Value: 0
Key: 228608 Value: 0
Key: 174464 Value: 0
Key: 243392 Value: 0
Key: 217920 Value: 0
Key: 182848 Value: 0
Key: 175296 Value: 0
Key: 171712 Value: 0
Key: 228864 Value: 0
Key: 177920 Value: 0
Key: 219264 Value: 0
Key: 174528 Value: 0
Key: 177280 Value: 0
Key: 183488 Value: 0
Key: 229312 Value: 0
Key: 183232 Value: 0
Key: 171328 Value: 0
Key: 222208 Value: 0
Key: 171264 Value: 0
Key: 222336 Value: 0
Key: 171392 Value: 0
Key: 177600 Value: 0
Key: 171456 Value: 0
Key: 178816 Value: 0
Key: 178624 Value: 0
Key: 178560 Value: 0
Key: 183296 Value: 0
Key: 227008 Value: 0
Key: 176064 Value: 0
Key: 175936 Value: 0
Key: 176000 Value: 0
Key: 222464 Value: 0
Key: 171520 Value: 0
Key: 176832 Value: 0
Key: 256192 Value: 0
Key: 217984 Value: 0
Key: 243456 Value: 0
Key: 175168 Value: 0
Key: 222720 Value: 0
Key: 171776 Value: 0
Key: 222848 Value: 0
Key: 171904 Value: 0
Key: 219200 Value: 0
Key: 219136 Value: 0
Key: 222912 Value: 0
Key: 171968 Value: 0
Key: 222976 Value: 0
Key: 172032 Value: 0
Exiting @ tick 877018000 because exiting with last active thread context
