Global frequency set at 1000000000000 ticks per second
Hey, I am a DBICache component + Deepanjali
Hey, I am a RDBI component
Number of sets in DBI: 32Number of bits required to index into DBI: 5
gem5 Simulator System.  https://www.gem5.org
gem5 is copyrighted software; use the --copyright option for details.

gem5 version 22.0.0.2
gem5 compiled Mar 15 2023 04:22:04
gem5 started Mar 15 2023 04:24:17
gem5 executing on v100-gpu-4, pid 3539
command line: build/X86/gem5.opt --stats-file =dbi.txt configs/learning_gem5/DebugDBI/DBICache/config.py test-benchmark/test -n 3000 -k 4 -t 1

Beginning simulation!
Number of elements: 3000, Number of cache blocks: 4, Number of iterations: 1
Packet address in binary: 0000000000000000000000000000000000000000000000111110000011000000
Debugging start
Blocks in region field: 0000000000000000000000000000000000000000000000000000000000000011
Re-generated blocks in region field: 0000000000000000000000000000000011011001010100110000100000000000
Row tag field: 0000000000000000000000000000000000000000000000000000000000011111
Re-generated row tag field: 0000000000000000000011111000000000000000000000000000000000000000
Packet address in binary: 0000000000000000000000000000000000000000000000111110000011000000
Re-generated packet address in binary: 0000000000000000000011111000000011111111011100110111110101101111
Packet address in binary: 0000000000000000000000000000000000000000000000111110000100000000
Debugging start
Blocks in region field: 0000000000000000000000000000000000000000000000000000000000000100
Re-generated blocks in region field: 0000000000000000000000000000000001010100110000100000000000000000
Row tag field: 0000000000000000000000000000000000000000000000000000000000011111
Re-generated row tag field: 0000000000000000000011111000000000000000000000000000000000000000
Packet address in binary: 0000000000000000000000000000000000000000000000111110000100000000
Re-generated packet address in binary: 0000000000000000000011111000000001111110111100100111010101101111
Sum: 4 
Packet address in binary: 0000000000000000000000000000000000000000000000111110100100000000
Debugging start
Blocks in region field: 0000000000000000000000000000000000000000000000000000000000100100
Re-generated blocks in region field: 0000000000000000000000000000000000110000100000000000000000000000
Row tag field: 0000000000000000000000000000000000000000000000000000000000011111
Re-generated row tag field: 0000000000000000000011111000000000000000000000000000000000000000
Packet address in binary: 0000000000000000000000000000000000000000000000111110100100000000
Re-generated packet address in binary: 0000000000000000000011111000000000111110111100000111010101101111
Packet address in binary: 0000000000000000000000000000000000000000000000111110100011000000
Debugging start
Blocks in region field: 0000000000000000000000000000000000000000000000000000000000100011
Re-generated blocks in region field: 0000000000000000000000000000000000100000000000000000000000000000
Row tag field: 0000000000000000000000000000000000000000000000000000000000011111
Re-generated row tag field: 0000000000000000000011111000000000000000000000000000000000000000
Packet address in binary: 0000000000000000000000000000000000000000000000111110100011000000
Re-generated packet address in binary: 0000000000000000000011111000000000101110011100000111010101101111
