Global frequency set at 1000000000000 ticks per second
Hey, I am a DBICache component + Deepanjali
Hey, I am a RDBI component
Number of sets in DBI: 32gem5 Simulator System.  https://www.gem5.org
gem5 is copyrighted software; use the --copyright option for details.

gem5 version 22.0.0.2
gem5 compiled Mar 16 2023 03:10:01
gem5 started Mar 16 2023 03:12:07
gem5 executing on v100-gpu-4, pid 27617
command line: build/X86/gem5.opt --stats-file =dbi.txt configs/learning_gem5/DebugDBI/DBICache/config.py test-benchmark/test -n 3000 -k 4 -t 1

Beginning simulation!
Blocks in region: 0000000000000000000000000000000000000000000000000000000001110000
Bit index in bitset: 0000000000000000000000000000000000000000000000000000000001110000
Blocks in region: 0000000000000000000000000000000000000000000000000000000000111000
Bit index in bitset: 0000000000000000000000000000000000000000000000000000000000111000
Blocks in region: 0000000000000000000000000000000000000000000000000000000000100110
Bit index in bitset: 0000000000000000000000000000000000000000000000000000000000100110
Blocks in region: 0000000000000000000000000000000000000000000000000000000000110111
Bit index in bitset: 0000000000000000000000000000000000000000000000000000000000110111
Blocks in region: 0000000000000000000000000000000000000000000000000000000000100111
Bit index in bitset: 0000000000000000000000000000000000000000000000000000000000100111
Blocks in region: 0000000000000000000000000000000000000000000000000000000001110001
Bit index in bitset: 0000000000000000000000000000000000000000000000000000000001110001
Blocks in region: 0000000000000000000000000000000000000000000000000000000001111010
Bit index in bitset: 0000000000000000000000000000000000000000000000000000000001111010
Blocks in region: 0000000000000000000000000000000000000000000000000000000000000000
Bit index in bitset: 0000000000000000000000000000000000000000000000000000000000000000
Blocks in region: 0000000000000000000000000000000000000000000000000000000000100111
Bit index in bitset: 0000000000000000000000000000000000000000000000000000000000100111
Blocks in region: 0000000000000000000000000000000000000000000000000000000000101000
Bit index in bitset: 0000000000000000000000000000000000000000000000000000000000101000
Blocks in region: 0000000000000000000000000000000000000000000000000000000000101001
Bit index in bitset: 0000000000000000000000000000000000000000000000000000000000101001
Blocks in region: 0000000000000000000000000000000000000000000000000000000000101010
Bit index in bitset: 0000000000000000000000000000000000000000000000000000000000101010
Blocks in region: 0000000000000000000000000000000000000000000000000000000000101000
Bit index in bitset: 0000000000000000000000000000000000000000000000000000000000101000
Blocks in region: 0000000000000000000000000000000000000000000000000000000000110001
Bit index in bitset: 0000000000000000000000000000000000000000000000000000000000110001
Blocks in region: 0000000000000000000000000000000000000000000000000000000000110010
Bit index in bitset: 0000000000000000000000000000000000000000000000000000000000110010
Blocks in region: 0000000000000000000000000000000000000000000000000000000000110111
Bit index in bitset: 0000000000000000000000000000000000000000000000000000000000110111
Blocks in region: 0000000000000000000000000000000000000000000000000000000000110001
Bit index in bitset: 0000000000000000000000000000000000000000000000000000000000110001
Blocks in region: 0000000000000000000000000000000000000000000000000000000000101001
Bit index in bitset: 0000000000000000000000000000000000000000000000000000000000101001
Blocks in region: 0000000000000000000000000000000000000000000000000000000001111011
Bit index in bitset: 0000000000000000000000000000000000000000000000000000000001111011
Blocks in region: 0000000000000000000000000000000000000000000000000000000001111100
Bit index in bitset: 0000000000000000000000000000000000000000000000000000000001111100
Blocks in region: 0000000000000000000000000000000000000000000000000000000000101011
Bit index in bitset: 0000000000000000000000000000000000000000000000000000000000101011
Blocks in region: 0000000000000000000000000000000000000000000000000000000001111101
Bit index in bitset: 0000000000000000000000000000000000000000000000000000000001111101
Blocks in region: 0000000000000000000000000000000000000000000000000000000000101010
Bit index in bitset: 0000000000000000000000000000000000000000000000000000000000101010
Blocks in region: 0000000000000000000000000000000000000000000000000000000000101101
Bit index in bitset: 0000000000000000000000000000000000000000000000000000000000101101
Blocks in region: 0000000000000000000000000000000000000000000000000000000000101100
Bit index in bitset: 0000000000000000000000000000000000000000000000000000000000101100
Blocks in region: 0000000000000000000000000000000000000000000000000000000001111110
Bit index in bitset: 0000000000000000000000000000000000000000000000000000000001111110
Blocks in region: 0000000000000000000000000000000000000000000000000000000000101110
Bit index in bitset: 0000000000000000000000000000000000000000000000000000000000101110
Blocks in region: 0000000000000000000000000000000000000000000000000000000000101011
Bit index in bitset: 0000000000000000000000000000000000000000000000000000000000101011
Blocks in region: 0000000000000000000000000000000000000000000000000000000000101100
Bit index in bitset: 0000000000000000000000000000000000000000000000000000000000101100
Blocks in region: 0000000000000000000000000000000000000000000000000000000000101101
Bit index in bitset: 0000000000000000000000000000000000000000000000000000000000101101
Blocks in region: 0000000000000000000000000000000000000000000000000000000000101110
Bit index in bitset: 0000000000000000000000000000000000000000000000000000000000101110
Blocks in region: 0000000000000000000000000000000000000000000000000000000000110011
Bit index in bitset: 0000000000000000000000000000000000000000000000000000000000110011
Blocks in region: 0000000000000000000000000000000000000000000000000000000000110100
Bit index in bitset: 0000000000000000000000000000000000000000000000000000000000110100
Blocks in region: 0000000000000000000000000000000000000000000000000000000001100011
Bit index in bitset: 0000000000000000000000000000000000000000000000000000000001100011
Blocks in region: 0000000000000000000000000000000000000000000000000000000000110101
Bit index in bitset: 0000000000000000000000000000000000000000000000000000000000110101
Blocks in region: 0000000000000000000000000000000000000000000000000000000001110110
Bit index in bitset: 0000000000000000000000000000000000000000000000000000000001110110
Blocks in region: 0000000000000000000000000000000000000000000000000000000001100100
Bit index in bitset: 0000000000000000000000000000000000000000000000000000000001100100
Blocks in region: 0000000000000000000000000000000000000000000000000000000001110111
Bit index in bitset: 0000000000000000000000000000000000000000000000000000000001110111
Blocks in region: 0000000000000000000000000000000000000000000000000000000001100101
Bit index in bitset: 0000000000000000000000000000000000000000000000000000000001100101
Blocks in region: 0000000000000000000000000000000000000000000000000000000001100110
Bit index in bitset: 0000000000000000000000000000000000000000000000000000000001100110
Blocks in region: 0000000000000000000000000000000000000000000000000000000001100111
Bit index in bitset: 0000000000000000000000000000000000000000000000000000000001100111
Blocks in region: 0000000000000000000000000000000000000000000000000000000001111000
Bit index in bitset: 0000000000000000000000000000000000000000000000000000000001111000
Blocks in region: 0000000000000000000000000000000000000000000000000000000000110110
Bit index in bitset: 0000000000000000000000000000000000000000000000000000000000110110
Blocks in region: 0000000000000000000000000000000000000000000000000000000001010010
Bit index in bitset: 0000000000000000000000000000000000000000000000000000000001010010
Blocks in region: 0000000000000000000000000000000000000000000000000000000001011111
Bit index in bitset: 0000000000000000000000000000000000000000000000000000000001011111
Blocks in region: 0000000000000000000000000000000000000000000000000000000000111000
Bit index in bitset: 0000000000000000000000000000000000000000000000000000000000111000
Blocks in region: 0000000000000000000000000000000000000000000000000000000001111111
Bit index in bitset: 0000000000000000000000000000000000000000000000000000000001111111
Blocks in region: 0000000000000000000000000000000000000000000000000000000001010000
Bit index in bitset: 0000000000000000000000000000000000000000000000000000000001010000
Blocks in region: 0000000000000000000000000000000000000000000000000000000001010001
Bit index in bitset: 0000000000000000000000000000000000000000000000000000000001010001
Blocks in region: 0000000000000000000000000000000000000000000000000000000001101000
Bit index in bitset: 0000000000000000000000000000000000000000000000000000000001101000
Blocks in region: 0000000000000000000000000000000000000000000000000000000001010111
Bit index in bitset: 0000000000000000000000000000000000000000000000000000000001010111
Blocks in region: 0000000000000000000000000000000000000000000000000000000001010011
Bit index in bitset: 0000000000000000000000000000000000000000000000000000000001010011
Blocks in region: 0000000000000000000000000000000000000000000000000000000001010100
Bit index in bitset: 0000000000000000000000000000000000000000000000000000000001010100
Blocks in region: 0000000000000000000000000000000000000000000000000000000001101001
Bit index in bitset: 0000000000000000000000000000000000000000000000000000000001101001
Blocks in region: 0000000000000000000000000000000000000000000000000000000000101111
Bit index in bitset: 0000000000000000000000000000000000000000000000000000000000101111
Blocks in region: 0000000000000000000000000000000000000000000000000000000000110011
Bit index in bitset: 0000000000000000000000000000000000000000000000000000000000110011
Blocks in region: 0000000000000000000000000000000000000000000000000000000000110110
Bit index in bitset: 0000000000000000000000000000000000000000000000000000000000110110
Blocks in region: 0000000000000000000000000000000000000000000000000000000000101010
Bit index in bitset: 0000000000000000000000000000000000000000000000000000000000101010
Blocks in region: 0000000000000000000000000000000000000000000000000000000001001010
Bit index in bitset: 0000000000000000000000000000000000000000000000000000000001001010
Blocks in region: 0000000000000000000000000000000000000000000000000000000000101011
Bit index in bitset: 0000000000000000000000000000000000000000000000000000000000101011
Blocks in region: 0000000000000000000000000000000000000000000000000000000000110100
Bit index in bitset: 0000000000000000000000000000000000000000000000000000000000110100
Blocks in region: 0000000000000000000000000000000000000000000000000000000000110000
Bit index in bitset: 0000000000000000000000000000000000000000000000000000000000110000
Blocks in region: 0000000000000000000000000000000000000000000000000000000001111001
Bit index in bitset: 0000000000000000000000000000000000000000000000000000000001111001
Blocks in region: 0000000000000000000000000000000000000000000000000000000000100110
Bit index in bitset: 0000000000000000000000000000000000000000000000000000000000100110
Blocks in region: 0000000000000000000000000000000000000000000000000000000000010110
Bit index in bitset: 0000000000000000000000000000000000000000000000000000000000010110
Blocks in region: 0000000000000000000000000000000000000000000000000000000000110101
Bit index in bitset: 0000000000000000000000000000000000000000000000000000000000110101
Blocks in region: 0000000000000000000000000000000000000000000000000000000000010111
Bit index in bitset: 0000000000000000000000000000000000000000000000000000000000010111
Blocks in region: 0000000000000000000000000000000000000000000000000000000001110010
Bit index in bitset: 0000000000000000000000000000000000000000000000000000000001110010
Blocks in region: 0000000000000000000000000000000000000000000000000000000001000100
Bit index in bitset: 0000000000000000000000000000000000000000000000000000000001000100
Blocks in region: 0000000000000000000000000000000000000000000000000000000000111001
Bit index in bitset: 0000000000000000000000000000000000000000000000000000000000111001
Blocks in region: 0000000000000000000000000000000000000000000000000000000000011000
Bit index in bitset: 0000000000000000000000000000000000000000000000000000000000011000
Blocks in region: 0000000000000000000000000000000000000000000000000000000001110100
Bit index in bitset: 0000000000000000000000000000000000000000000000000000000001110100
Blocks in region: 0000000000000000000000000000000000000000000000000000000001110011
Bit index in bitset: 0000000000000000000000000000000000000000000000000000000001110011
Blocks in region: 0000000000000000000000000000000000000000000000000000000000011001
Bit index in bitset: 0000000000000000000000000000000000000000000000000000000000011001
Blocks in region: 0000000000000000000000000000000000000000000000000000000000110100
Bit index in bitset: 0000000000000000000000000000000000000000000000000000000000110100
Blocks in region: 0000000000000000000000000000000000000000000000000000000000011010
Bit index in bitset: 0000000000000000000000000000000000000000000000000000000000011010
Blocks in region: 0000000000000000000000000000000000000000000000000000000000011011
Bit index in bitset: 0000000000000000000000000000000000000000000000000000000000011011
Blocks in region: 0000000000000000000000000000000000000000000000000000000000000110
Bit index in bitset: 0000000000000000000000000000000000000000000000000000000000000110
Blocks in region: 0000000000000000000000000000000000000000000000000000000000000101
Bit index in bitset: 0000000000000000000000000000000000000000000000000000000000000101
Blocks in region: 0000000000000000000000000000000000000000000000000000000000100000
Bit index in bitset: 0000000000000000000000000000000000000000000000000000000000100000
Blocks in region: 0000000000000000000000000000000000000000000000000000000000111010
Bit index in bitset: 0000000000000000000000000000000000000000000000000000000000111010
Blocks in region: 0000000000000000000000000000000000000000000000000000000000000100
Bit index in bitset: 0000000000000000000000000000000000000000000000000000000000000100
Blocks in region: 0000000000000000000000000000000000000000000000000000000000100001
Bit index in bitset: 0000000000000000000000000000000000000000000000000000000000100001
Blocks in region: 0000000000000000000000000000000000000000000000000000000000011111
Bit index in bitset: 0000000000000000000000000000000000000000000000000000000000011111
Blocks in region: 0000000000000000000000000000000000000000000000000000000000111011
Bit index in bitset: 0000000000000000000000000000000000000000000000000000000000111011
Blocks in region: 0000000000000000000000000000000000000000000000000000000000111100
Bit index in bitset: 0000000000000000000000000000000000000000000000000000000000111100
Blocks in region: 0000000000000000000000000000000000000000000000000000000000111101
Bit index in bitset: 0000000000000000000000000000000000000000000000000000000000111101
Blocks in region: 0000000000000000000000000000000000000000000000000000000000011110
Bit index in bitset: 0000000000000000000000000000000000000000000000000000000000011110
Blocks in region: 0000000000000000000000000000000000000000000000000000000000111110
Bit index in bitset: 0000000000000000000000000000000000000000000000000000000000111110
Blocks in region: 0000000000000000000000000000000000000000000000000000000000100100
Bit index in bitset: 0000000000000000000000000000000000000000000000000000000000100100
Blocks in region: 0000000000000000000000000000000000000000000000000000000000011100
Bit index in bitset: 0000000000000000000000000000000000000000000000000000000000011100
Blocks in region: 0000000000000000000000000000000000000000000000000000000000011101
Bit index in bitset: 0000000000000000000000000000000000000000000000000000000000011101
Blocks in region: 0000000000000000000000000000000000000000000000000000000001010000
Bit index in bitset: 0000000000000000000000000000000000000000000000000000000001010000
Blocks in region: 0000000000000000000000000000000000000000000000000000000001000011
Bit index in bitset: 0000000000000000000000000000000000000000000000000000000001000011
Blocks in region: 0000000000000000000000000000000000000000000000000000000001010001
Bit index in bitset: 0000000000000000000000000000000000000000000000000000000001010001
Blocks in region: 0000000000000000000000000000000000000000000000000000000000100010
Bit index in bitset: 0000000000000000000000000000000000000000000000000000000000100010
Blocks in region: 0000000000000000000000000000000000000000000000000000000000000001
Bit index in bitset: 0000000000000000000000000000000000000000000000000000000000000001
Blocks in region: 0000000000000000000000000000000000000000000000000000000000110011
Bit index in bitset: 0000000000000000000000000000000000000000000000000000000000110011
Blocks in region: 0000000000000000000000000000000000000000000000000000000000000010
Bit index in bitset: 0000000000000000000000000000000000000000000000000000000000000010
Blocks in region: 0000000000000000000000000000000000000000000000000000000000000011
Bit index in bitset: 0000000000000000000000000000000000000000000000000000000000000011
Blocks in region: 0000000000000000000000000000000000000000000000000000000000000100
Bit index in bitset: 0000000000000000000000000000000000000000000000000000000000000100
Blocks in region: 0000000000000000000000000000000000000000000000000000000000000101
Bit index in bitset: 0000000000000000000000000000000000000000000000000000000000000101
Blocks in region: 0000000000000000000000000000000000000000000000000000000001110101
Bit index in bitset: 0000000000000000000000000000000000000000000000000000000001110101
Blocks in region: 0000000000000000000000000000000000000000000000000000000001010010
Bit index in bitset: 0000000000000000000000000000000000000000000000000000000001010010
Blocks in region: 0000000000000000000000000000000000000000000000000000000001000010
Bit index in bitset: 0000000000000000000000000000000000000000000000000000000001000010
Blocks in region: 0000000000000000000000000000000000000000000000000000000000100011
Bit index in bitset: 0000000000000000000000000000000000000000000000000000000000100011
Blocks in region: 0000000000000000000000000000000000000000000000000000000001000111
Bit index in bitset: 0000000000000000000000000000000000000000000000000000000001000111
Blocks in region: 0000000000000000000000000000000000000000000000000000000001001000
Bit index in bitset: 0000000000000000000000000000000000000000000000000000000001001000
Blocks in region: 0000000000000000000000000000000000000000000000000000000000110001
Bit index in bitset: 0000000000000000000000000000000000000000000000000000000000110001
Blocks in region: 0000000000000000000000000000000000000000000000000000000000111110
Bit index in bitset: 0000000000000000000000000000000000000000000000000000000000111110
Blocks in region: 0000000000000000000000000000000000000000000000000000000000111101
Bit index in bitset: 0000000000000000000000000000000000000000000000000000000000111101
Blocks in region: 0000000000000000000000000000000000000000000000000000000001001001
Bit index in bitset: 0000000000000000000000000000000000000000000000000000000001001001
Blocks in region: 0000000000000000000000000000000000000000000000000000000000110010
Bit index in bitset: 0000000000000000000000000000000000000000000000000000000000110010
Blocks in region: 0000000000000000000000000000000000000000000000000000000001001010
Bit index in bitset: 0000000000000000000000000000000000000000000000000000000001001010
Blocks in region: 0000000000000000000000000000000000000000000000000000000000110000
Bit index in bitset: 0000000000000000000000000000000000000000000000000000000000110000
Blocks in region: 0000000000000000000000000000000000000000000000000000000000110010
Bit index in bitset: 0000000000000000000000000000000000000000000000000000000000110010
Blocks in region: 0000000000000000000000000000000000000000000000000000000000110011
Bit index in bitset: 0000000000000000000000000000000000000000000000000000000000110011
Blocks in region: 0000000000000000000000000000000000000000000000000000000001001100
Bit index in bitset: 0000000000000000000000000000000000000000000000000000000001001100
Blocks in region: 0000000000000000000000000000000000000000000000000000000001101111
Bit index in bitset: 0000000000000000000000000000000000000000000000000000000001101111
Blocks in region: 0000000000000000000000000000000000000000000000000000000001001111
Bit index in bitset: 0000000000000000000000000000000000000000000000000000000001001111
Blocks in region: 0000000000000000000000000000000000000000000000000000000001011000
Bit index in bitset: 0000000000000000000000000000000000000000000000000000000001011000
Blocks in region: 0000000000000000000000000000000000000000000000000000000001011001
Bit index in bitset: 0000000000000000000000000000000000000000000000000000000001011001
Blocks in region: 0000000000000000000000000000000000000000000000000000000000101111
Bit index in bitset: 0000000000000000000000000000000000000000000000000000000000101111
Blocks in region: 0000000000000000000000000000000000000000000000000000000000101111
Bit index in bitset: 0000000000000000000000000000000000000000000000000000000000101111
Blocks in region: 0000000000000000000000000000000000000000000000000000000001111101
Bit index in bitset: 0000000000000000000000000000000000000000000000000000000001111101
Blocks in region: 0000000000000000000000000000000000000000000000000000000000100001
Bit index in bitset: 0000000000000000000000000000000000000000000000000000000000100001
Blocks in region: 0000000000000000000000000000000000000000000000000000000000110000
Bit index in bitset: 0000000000000000000000000000000000000000000000000000000000110000
Blocks in region: 0000000000000000000000000000000000000000000000000000000000111000
Bit index in bitset: 0000000000000000000000000000000000000000000000000000000000111000
Blocks in region: 0000000000000000000000000000000000000000000000000000000000111001
Bit index in bitset: 0000000000000000000000000000000000000000000000000000000000111001
Blocks in region: 0000000000000000000000000000000000000000000000000000000001101010
Bit index in bitset: 0000000000000000000000000000000000000000000000000000000001101010
Blocks in region: 0000000000000000000000000000000000000000000000000000000000111010
Bit index in bitset: 0000000000000000000000000000000000000000000000000000000000111010
Blocks in region: 0000000000000000000000000000000000000000000000000000000000111001
Bit index in bitset: 0000000000000000000000000000000000000000000000000000000000111001
Blocks in region: 0000000000000000000000000000000000000000000000000000000000110101
Bit index in bitset: 0000000000000000000000000000000000000000000000000000000000110101
Blocks in region: 0000000000000000000000000000000000000000000000000000000000101110
Bit index in bitset: 0000000000000000000000000000000000000000000000000000000000101110
Blocks in region: 0000000000000000000000000000000000000000000000000000000000110110
Bit index in bitset: 0000000000000000000000000000000000000000000000000000000000110110
Blocks in region: 0000000000000000000000000000000000000000000000000000000000111000
Bit index in bitset: 0000000000000000000000000000000000000000000000000000000000111000
Blocks in region: 0000000000000000000000000000000000000000000000000000000000110001
Bit index in bitset: 0000000000000000000000000000000000000000000000000000000000110001
Blocks in region: 0000000000000000000000000000000000000000000000000000000001000110
Bit index in bitset: 0000000000000000000000000000000000000000000000000000000001000110
Blocks in region: 0000000000000000000000000000000000000000000000000000000001010000
Bit index in bitset: 0000000000000000000000000000000000000000000000000000000001010000
Blocks in region: 0000000000000000000000000000000000000000000000000000000000111011
Bit index in bitset: 0000000000000000000000000000000000000000000000000000000000111011
Blocks in region: 0000000000000000000000000000000000000000000000000000000001011011
Bit index in bitset: 0000000000000000000000000000000000000000000000000000000001011011
Blocks in region: 0000000000000000000000000000000000000000000000000000000000111100
Bit index in bitset: 0000000000000000000000000000000000000000000000000000000000111100
Blocks in region: 0000000000000000000000000000000000000000000000000000000000111101
Bit index in bitset: 0000000000000000000000000000000000000000000000000000000000111101
Blocks in region: 0000000000000000000000000000000000000000000000000000000001010001
Bit index in bitset: 0000000000000000000000000000000000000000000000000000000001010001
Blocks in region: 0000000000000000000000000000000000000000000000000000000000110010
Bit index in bitset: 0000000000000000000000000000000000000000000000000000000000110010
Blocks in region: 0000000000000000000000000000000000000000000000000000000001000101
Bit index in bitset: 0000000000000000000000000000000000000000000000000000000001000101
Blocks in region: 0000000000000000000000000000000000000000000000000000000001010100
Bit index in bitset: 0000000000000000000000000000000000000000000000000000000001010100
Blocks in region: 0000000000000000000000000000000000000000000000000000000000110011
Bit index in bitset: 0000000000000000000000000000000000000000000000000000000000110011
Blocks in region: 0000000000000000000000000000000000000000000000000000000001010111
Bit index in bitset: 0000000000000000000000000000000000000000000000000000000001010111
Blocks in region: 0000000000000000000000000000000000000000000000000000000001011000
Bit index in bitset: 0000000000000000000000000000000000000000000000000000000001011000
Blocks in region: 0000000000000000000000000000000000000000000000000000000001011001
Bit index in bitset: 0000000000000000000000000000000000000000000000000000000001011001
Blocks in region: 0000000000000000000000000000000000000000000000000000000001011010
Bit index in bitset: 0000000000000000000000000000000000000000000000000000000001011010
Blocks in region: 0000000000000000000000000000000000000000000000000000000001010011
Bit index in bitset: 0000000000000000000000000000000000000000000000000000000001010011
Blocks in region: 0000000000000000000000000000000000000000000000000000000000110100
Bit index in bitset: 0000000000000000000000000000000000000000000000000000000000110100
Blocks in region: 0000000000000000000000000000000000000000000000000000000000000001
Bit index in bitset: 0000000000000000000000000000000000000000000000000000000000000001
Blocks in region: 0000000000000000000000000000000000000000000000000000000000111100
Bit index in bitset: 0000000000000000000000000000000000000000000000000000000000111100
Blocks in region: 0000000000000000000000000000000000000000000000000000000000111101
Bit index in bitset: 0000000000000000000000000000000000000000000000000000000000111101
Blocks in region: 0000000000000000000000000000000000000000000000000000000000110101
Bit index in bitset: 0000000000000000000000000000000000000000000000000000000000110101
Blocks in region: 0000000000000000000000000000000000000000000000000000000000110110
Bit index in bitset: 0000000000000000000000000000000000000000000000000000000000110110
Blocks in region: 0000000000000000000000000000000000000000000000000000000001011010
Bit index in bitset: 0000000000000000000000000000000000000000000000000000000001011010
Blocks in region: 0000000000000000000000000000000000000000000000000000000000101100
Bit index in bitset: 0000000000000000000000000000000000000000000000000000000000101100
Blocks in region: 0000000000000000000000000000000000000000000000000000000000101101
Bit index in bitset: 0000000000000000000000000000000000000000000000000000000000101101
Blocks in region: 0000000000000000000000000000000000000000000000000000000001110010
Bit index in bitset: 0000000000000000000000000000000000000000000000000000000001110010
Blocks in region: 0000000000000000000000000000000000000000000000000000000000100101
Bit index in bitset: 0000000000000000000000000000000000000000000000000000000000100101
Blocks in region: 0000000000000000000000000000000000000000000000000000000000101110
Bit index in bitset: 0000000000000000000000000000000000000000000000000000000000101110
Blocks in region: 0000000000000000000000000000000000000000000000000000000001010010
Bit index in bitset: 0000000000000000000000000000000000000000000000000000000001010010
Blocks in region: 0000000000000000000000000000000000000000000000000000000001011011
Bit index in bitset: 0000000000000000000000000000000000000000000000000000000001011011
Blocks in region: 0000000000000000000000000000000000000000000000000000000001011100
Bit index in bitset: 0000000000000000000000000000000000000000000000000000000001011100
Blocks in region: 0000000000000000000000000000000000000000000000000000000000000001
Bit index in bitset: 0000000000000000000000000000000000000000000000000000000000000001
Blocks in region: 0000000000000000000000000000000000000000000000000000000001111111
Bit index in bitset: 0000000000000000000000000000000000000000000000000000000001111111
Blocks in region: 0000000000000000000000000000000000000000000000000000000000000010
Bit index in bitset: 0000000000000000000000000000000000000000000000000000000000000010
Blocks in region: 0000000000000000000000000000000000000000000000000000000000000010
Bit index in bitset: 0000000000000000000000000000000000000000000000000000000000000010
Blocks in region: 0000000000000000000000000000000000000000000000000000000001000000
Bit index in bitset: 0000000000000000000000000000000000000000000000000000000001000000
Blocks in region: 0000000000000000000000000000000000000000000000000000000000000000
Bit index in bitset: 0000000000000000000000000000000000000000000000000000000000000000
Blocks in region: 0000000000000000000000000000000000000000000000000000000000000011
Bit index in bitset: 0000000000000000000000000000000000000000000000000000000000000011
Blocks in region: 0000000000000000000000000000000000000000000000000000000000000001
Bit index in bitset: 0000000000000000000000000000000000000000000000000000000000000001
Blocks in region: 0000000000000000000000000000000000000000000000000000000000000100
Bit index in bitset: 0000000000000000000000000000000000000000000000000000000000000100
Blocks in region: 0000000000000000000000000000000000000000000000000000000000000100
Bit index in bitset: 0000000000000000000000000000000000000000000000000000000000000100
Blocks in region: 0000000000000000000000000000000000000000000000000000000000000101
Bit index in bitset: 0000000000000000000000000000000000000000000000000000000000000101
Blocks in region: 0000000000000000000000000000000000000000000000000000000000000110
Bit index in bitset: 0000000000000000000000000000000000000000000000000000000000000110
Blocks in region: 0000000000000000000000000000000000000000000000000000000001011101
Bit index in bitset: 0000000000000000000000000000000000000000000000000000000001011101
Blocks in region: 0000000000000000000000000000000000000000000000000000000000000111
Bit index in bitset: 0000000000000000000000000000000000000000000000000000000000000111
Blocks in region: 0000000000000000000000000000000000000000000000000000000000001000
Bit index in bitset: 0000000000000000000000000000000000000000000000000000000000001000
Blocks in region: 0000000000000000000000000000000000000000000000000000000001111110
Bit index in bitset: 0000000000000000000000000000000000000000000000000000000001111110
Blocks in region: 0000000000000000000000000000000000000000000000000000000001011110
Bit index in bitset: 0000000000000000000000000000000000000000000000000000000001011110
Blocks in region: 0000000000000000000000000000000000000000000000000000000001011111
Bit index in bitset: 0000000000000000000000000000000000000000000000000000000001011111
Blocks in region: 0000000000000000000000000000000000000000000000000000000001010110
Bit index in bitset: 0000000000000000000000000000000000000000000000000000000001010110
Blocks in region: 0000000000000000000000000000000000000000000000000000000001100000
Bit index in bitset: 0000000000000000000000000000000000000000000000000000000001100000
Blocks in region: 0000000000000000000000000000000000000000000000000000000000101010
Bit index in bitset: 0000000000000000000000000000000000000000000000000000000000101010
Blocks in region: 0000000000000000000000000000000000000000000000000000000000101011
Bit index in bitset: 0000000000000000000000000000000000000000000000000000000000101011
Blocks in region: 0000000000000000000000000000000000000000000000000000000000101100
Bit index in bitset: 0000000000000000000000000000000000000000000000000000000000101100
Blocks in region: 0000000000000000000000000000000000000000000000000000000000010011
Bit index in bitset: 0000000000000000000000000000000000000000000000000000000000010011
Blocks in region: 0000000000000000000000000000000000000000000000000000000001100110
Bit index in bitset: 0000000000000000000000000000000000000000000000000000000001100110
Blocks in region: 0000000000000000000000000000000000000000000000000000000001011110
Bit index in bitset: 0000000000000000000000000000000000000000000000000000000001011110
Blocks in region: 0000000000000000000000000000000000000000000000000000000001100111
Bit index in bitset: 0000000000000000000000000000000000000000000000000000000001100111
Blocks in region: 0000000000000000000000000000000000000000000000000000000001111010
Bit index in bitset: 0000000000000000000000000000000000000000000000000000000001111010
Blocks in region: 0000000000000000000000000000000000000000000000000000000001111011
Bit index in bitset: 0000000000000000000000000000000000000000000000000000000001111011
Blocks in region: 0000000000000000000000000000000000000000000000000000000001100001
Bit index in bitset: 0000000000000000000000000000000000000000000000000000000001100001
Blocks in region: 0000000000000000000000000000000000000000000000000000000000111111
Bit index in bitset: 0000000000000000000000000000000000000000000000000000000000111111
Blocks in region: 0000000000000000000000000000000000000000000000000000000001100010
Bit index in bitset: 0000000000000000000000000000000000000000000000000000000001100010
Blocks in region: 0000000000000000000000000000000000000000000000000000000001111000
Bit index in bitset: 0000000000000000000000000000000000000000000000000000000001111000
Blocks in region: 0000000000000000000000000000000000000000000000000000000001100011
Bit index in bitset: 0000000000000000000000000000000000000000000000000000000001100011
Blocks in region: 0000000000000000000000000000000000000000000000000000000001001000
Bit index in bitset: 0000000000000000000000000000000000000000000000000000000001001000
Blocks in region: 0000000000000000000000000000000000000000000000000000000001111001
Bit index in bitset: 0000000000000000000000000000000000000000000000000000000001111001
Blocks in region: 0000000000000000000000000000000000000000000000000000000001001001
Bit index in bitset: 0000000000000000000000000000000000000000000000000000000001001001
Blocks in region: 0000000000000000000000000000000000000000000000000000000001001010
Bit index in bitset: 0000000000000000000000000000000000000000000000000000000001001010
Blocks in region: 0000000000000000000000000000000000000000000000000000000001111010
Bit index in bitset: 0000000000000000000000000000000000000000000000000000000001111010
Blocks in region: 0000000000000000000000000000000000000000000000000000000001100100
Bit index in bitset: 0000000000000000000000000000000000000000000000000000000001100100
Blocks in region: 0000000000000000000000000000000000000000000000000000000000000101
Bit index in bitset: 0000000000000000000000000000000000000000000000000000000000000101
Blocks in region: 0000000000000000000000000000000000000000000000000000000000000110
Bit index in bitset: 0000000000000000000000000000000000000000000000000000000000000110
Blocks in region: 0000000000000000000000000000000000000000000000000000000000000111
Bit index in bitset: 0000000000000000000000000000000000000000000000000000000000000111
Blocks in region: 0000000000000000000000000000000000000000000000000000000001000111
Bit index in bitset: 0000000000000000000000000000000000000000000000000000000001000111
Blocks in region: 0000000000000000000000000000000000000000000000000000000001111011
Bit index in bitset: 0000000000000000000000000000000000000000000000000000000001111011
Blocks in region: 0000000000000000000000000000000000000000000000000000000001111100
Bit index in bitset: 0000000000000000000000000000000000000000000000000000000001111100
Blocks in region: 0000000000000000000000000000000000000000000000000000000001111101
Bit index in bitset: 0000000000000000000000000000000000000000000000000000000001111101
Blocks in region: 0000000000000000000000000000000000000000000000000000000001001011
Bit index in bitset: 0000000000000000000000000000000000000000000000000000000001001011
Blocks in region: 0000000000000000000000000000000000000000000000000000000001111110
Bit index in bitset: 0000000000000000000000000000000000000000000000000000000001111110
Blocks in region: 0000000000000000000000000000000000000000000000000000000001001100
Bit index in bitset: 0000000000000000000000000000000000000000000000000000000001001100
Blocks in region: 0000000000000000000000000000000000000000000000000000000001100110
Bit index in bitset: 0000000000000000000000000000000000000000000000000000000001100110
Blocks in region: 0000000000000000000000000000000000000000000000000000000001100111
Bit index in bitset: 0000000000000000000000000000000000000000000000000000000001100111
Blocks in region: 0000000000000000000000000000000000000000000000000000000001101000
Bit index in bitset: 0000000000000000000000000000000000000000000000000000000001101000
Blocks in region: 0000000000000000000000000000000000000000000000000000000001101001
Bit index in bitset: 0000000000000000000000000000000000000000000000000000000001101001
Blocks in region: 0000000000000000000000000000000000000000000000000000000000001010
Bit index in bitset: 0000000000000000000000000000000000000000000000000000000000001010
Blocks in region: 0000000000000000000000000000000000000000000000000000000001101010
Bit index in bitset: 0000000000000000000000000000000000000000000000000000000001101010
Blocks in region: 0000000000000000000000000000000000000000000000000000000001011100
Bit index in bitset: 0000000000000000000000000000000000000000000000000000000001011100
Blocks in region: 0000000000000000000000000000000000000000000000000000000001100111
Bit index in bitset: 0000000000000000000000000000000000000000000000000000000001100111
Blocks in region: 0000000000000000000000000000000000000000000000000000000001101110
Bit index in bitset: 0000000000000000000000000000000000000000000000000000000001101110
Blocks in region: 0000000000000000000000000000000000000000000000000000000001101101
Bit index in bitset: 0000000000000000000000000000000000000000000000000000000001101101
Blocks in region: 0000000000000000000000000000000000000000000000000000000001101000
Bit index in bitset: 0000000000000000000000000000000000000000000000000000000001101000
Blocks in region: 0000000000000000000000000000000000000000000000000000000001101011
Bit index in bitset: 0000000000000000000000000000000000000000000000000000000001101011
Blocks in region: 0000000000000000000000000000000000000000000000000000000001101001
Bit index in bitset: 0000000000000000000000000000000000000000000000000000000001101001
Blocks in region: 0000000000000000000000000000000000000000000000000000000001101010
Bit index in bitset: 0000000000000000000000000000000000000000000000000000000001101010
Blocks in region: 0000000000000000000000000000000000000000000000000000000000111010
Bit index in bitset: 0000000000000000000000000000000000000000000000000000000000111010
Blocks in region: 0000000000000000000000000000000000000000000000000000000000111011
Bit index in bitset: 0000000000000000000000000000000000000000000000000000000000111011
Blocks in region: 0000000000000000000000000000000000000000000000000000000001000000
Bit index in bitset: 0000000000000000000000000000000000000000000000000000000001000000
Blocks in region: 0000000000000000000000000000000000000000000000000000000001100110
Bit index in bitset: 0000000000000000000000000000000000000000000000000000000001100110
Blocks in region: 0000000000000000000000000000000000000000000000000000000001101011
Bit index in bitset: 0000000000000000000000000000000000000000000000000000000001101011
Blocks in region: 0000000000000000000000000000000000000000000000000000000001101100
Bit index in bitset: 0000000000000000000000000000000000000000000000000000000001101100
Blocks in region: 0000000000000000000000000000000000000000000000000000000001101101
Bit index in bitset: 0000000000000000000000000000000000000000000000000000000001101101
Blocks in region: 0000000000000000000000000000000000000000000000000000000001101110
Bit index in bitset: 0000000000000000000000000000000000000000000000000000000001101110
Blocks in region: 0000000000000000000000000000000000000000000000000000000001101111
Bit index in bitset: 0000000000000000000000000000000000000000000000000000000001101111
Blocks in region: 0000000000000000000000000000000000000000000000000000000001011101
Bit index in bitset: 0000000000000000000000000000000000000000000000000000000001011101
Blocks in region: 0000000000000000000000000000000000000000000000000000000001100100
Bit index in bitset: 0000000000000000000000000000000000000000000000000000000001100100
Blocks in region: 0000000000000000000000000000000000000000000000000000000001100101
Bit index in bitset: 0000000000000000000000000000000000000000000000000000000001100101
Blocks in region: 0000000000000000000000000000000000000000000000000000000001110001
Bit index in bitset: 0000000000000000000000000000000000000000000000000000000001110001
Blocks in region: 0000000000000000000000000000000000000000000000000000000001110010
Bit index in bitset: 0000000000000000000000000000000000000000000000000000000001110010
Blocks in region: 0000000000000000000000000000000000000000000000000000000001110011
Bit index in bitset: 0000000000000000000000000000000000000000000000000000000001110011
Blocks in region: 0000000000000000000000000000000000000000000000000000000001110100
Bit index in bitset: 0000000000000000000000000000000000000000000000000000000001110100
Blocks in region: 0000000000000000000000000000000000000000000000000000000001011111
Bit index in bitset: 0000000000000000000000000000000000000000000000000000000001011111
Blocks in region: 0000000000000000000000000000000000000000000000000000000001110101
Bit index in bitset: 0000000000000000000000000000000000000000000000000000000001110101
Blocks in region: 0000000000000000000000000000000000000000000000000000000001100011
Bit index in bitset: 0000000000000000000000000000000000000000000000000000000001100011
Blocks in region: 0000000000000000000000000000000000000000000000000000000001110110
Bit index in bitset: 0000000000000000000000000000000000000000000000000000000001110110
Blocks in region: 0000000000000000000000000000000000000000000000000000000001110111
Bit index in bitset: 0000000000000000000000000000000000000000000000000000000001110111
Blocks in region: 0000000000000000000000000000000000000000000000000000000001100000
Bit index in bitset: 0000000000000000000000000000000000000000000000000000000001100000
Blocks in region: 0000000000000000000000000000000000000000000000000000000001111000
Bit index in bitset: 0000000000000000000000000000000000000000000000000000000001111000
Blocks in region: 0000000000000000000000000000000000000000000000000000000001100001
Bit index in bitset: 0000000000000000000000000000000000000000000000000000000001100001
Blocks in region: 0000000000000000000000000000000000000000000000000000000001111001
Bit index in bitset: 0000000000000000000000000000000000000000000000000000000001111001
Blocks in region: 0000000000000000000000000000000000000000000000000000000001111010
Bit index in bitset: 0000000000000000000000000000000000000000000000000000000001111010
Blocks in region: 0000000000000000000000000000000000000000000000000000000001011110
Bit index in bitset: 0000000000000000000000000000000000000000000000000000000001011110
Blocks in region: 0000000000000000000000000000000000000000000000000000000001111011
Bit index in bitset: 0000000000000000000000000000000000000000000000000000000001111011
Blocks in region: 0000000000000000000000000000000000000000000000000000000001111100
Bit index in bitset: 0000000000000000000000000000000000000000000000000000000001111100
Blocks in region: 0000000000000000000000000000000000000000000000000000000001111101
Bit index in bitset: 0000000000000000000000000000000000000000000000000000000001111101
Blocks in region: 0000000000000000000000000000000000000000000000000000000000101011
Bit index in bitset: 0000000000000000000000000000000000000000000000000000000000101011
Blocks in region: 0000000000000000000000000000000000000000000000000000000000101100
Bit index in bitset: 0000000000000000000000000000000000000000000000000000000000101100
Blocks in region: 0000000000000000000000000000000000000000000000000000000000101000
Bit index in bitset: 0000000000000000000000000000000000000000000000000000000000101000
Blocks in region: 0000000000000000000000000000000000000000000000000000000000101111
Bit index in bitset: 0000000000000000000000000000000000000000000000000000000000101111
Blocks in region: 0000000000000000000000000000000000000000000000000000000000010100
Bit index in bitset: 0000000000000000000000000000000000000000000000000000000000010100
Blocks in region: 0000000000000000000000000000000000000000000000000000000000101011
Bit index in bitset: 0000000000000000000000000000000000000000000000000000000000101011
Blocks in region: 0000000000000000000000000000000000000000000000000000000000110000
Bit index in bitset: 0000000000000000000000000000000000000000000000000000000000110000
Blocks in region: 0000000000000000000000000000000000000000000000000000000000101110
Bit index in bitset: 0000000000000000000000000000000000000000000000000000000000101110
Blocks in region: 0000000000000000000000000000000000000000000000000000000000011111
Bit index in bitset: 0000000000000000000000000000000000000000000000000000000000011111
Blocks in region: 0000000000000000000000000000000000000000000000000000000000100000
Bit index in bitset: 0000000000000000000000000000000000000000000000000000000000100000
Blocks in region: 0000000000000000000000000000000000000000000000000000000001010100
Bit index in bitset: 0000000000000000000000000000000000000000000000000000000001010100
Blocks in region: 0000000000000000000000000000000000000000000000000000000001010101
Bit index in bitset: 0000000000000000000000000000000000000000000000000000000001010101
Blocks in region: 0000000000000000000000000000000000000000000000000000000000001000
Bit index in bitset: 0000000000000000000000000000000000000000000000000000000000001000
Blocks in region: 0000000000000000000000000000000000000000000000000000000000101101
Bit index in bitset: 0000000000000000000000000000000000000000000000000000000000101101
Blocks in region: 0000000000000000000000000000000000000000000000000000000000101100
Bit index in bitset: 0000000000000000000000000000000000000000000000000000000000101100
Blocks in region: 0000000000000000000000000000000000000000000000000000000000001001
Bit index in bitset: 0000000000000000000000000000000000000000000000000000000000001001
Blocks in region: 0000000000000000000000000000000000000000000000000000000000001010
Bit index in bitset: 0000000000000000000000000000000000000000000000000000000000001010
Blocks in region: 0000000000000000000000000000000000000000000000000000000000010010
Bit index in bitset: 0000000000000000000000000000000000000000000000000000000000010010
Blocks in region: 0000000000000000000000000000000000000000000000000000000000010011
Bit index in bitset: 0000000000000000000000000000000000000000000000000000000000010011
Blocks in region: 0000000000000000000000000000000000000000000000000000000000001100
Bit index in bitset: 0000000000000000000000000000000000000000000000000000000000001100
Blocks in region: 0000000000000000000000000000000000000000000000000000000000001101
Bit index in bitset: 0000000000000000000000000000000000000000000000000000000000001101
Blocks in region: 0000000000000000000000000000000000000000000000000000000000100100
Bit index in bitset: 0000000000000000000000000000000000000000000000000000000000100100
Blocks in region: 0000000000000000000000000000000000000000000000000000000000100101
Bit index in bitset: 0000000000000000000000000000000000000000000000000000000000100101
Blocks in region: 0000000000000000000000000000000000000000000000000000000000010001
Bit index in bitset: 0000000000000000000000000000000000000000000000000000000000010001
Blocks in region: 0000000000000000000000000000000000000000000000000000000000010100
Bit index in bitset: 0000000000000000000000000000000000000000000000000000000000010100
Blocks in region: 0000000000000000000000000000000000000000000000000000000000010101
Bit index in bitset: 0000000000000000000000000000000000000000000000000000000000010101
Blocks in region: 0000000000000000000000000000000000000000000000000000000000100011
Bit index in bitset: 0000000000000000000000000000000000000000000000000000000000100011
Blocks in region: 0000000000000000000000000000000000000000000000000000000000100110
Bit index in bitset: 0000000000000000000000000000000000000000000000000000000000100110
Blocks in region: 0000000000000000000000000000000000000000000000000000000000100111
Bit index in bitset: 0000000000000000000000000000000000000000000000000000000000100111
Blocks in region: 0000000000000000000000000000000000000000000000000000000000110010
Bit index in bitset: 0000000000000000000000000000000000000000000000000000000000110010
Blocks in region: 0000000000000000000000000000000000000000000000000000000000110100
Bit index in bitset: 0000000000000000000000000000000000000000000000000000000000110100
Blocks in region: 0000000000000000000000000000000000000000000000000000000000110011
Bit index in bitset: 0000000000000000000000000000000000000000000000000000000000110011
Blocks in region: 0000000000000000000000000000000000000000000000000000000000110100
Bit index in bitset: 0000000000000000000000000000000000000000000000000000000000110100
Blocks in region: 0000000000000000000000000000000000000000000000000000000000101000
Bit index in bitset: 0000000000000000000000000000000000000000000000000000000000101000
Blocks in region: 0000000000000000000000000000000000000000000000000000000001010110
Bit index in bitset: 0000000000000000000000000000000000000000000000000000000001010110
Blocks in region: 0000000000000000000000000000000000000000000000000000000001101111
Bit index in bitset: 0000000000000000000000000000000000000000000000000000000001101111
Blocks in region: 0000000000000000000000000000000000000000000000000000000001010111
Bit index in bitset: 0000000000000000000000000000000000000000000000000000000001010111
Blocks in region: 0000000000000000000000000000000000000000000000000000000001110000
Bit index in bitset: 0000000000000000000000000000000000000000000000000000000001110000
Blocks in region: 0000000000000000000000000000000000000000000000000000000001011000
Bit index in bitset: 0000000000000000000000000000000000000000000000000000000001011000
Blocks in region: 0000000000000000000000000000000000000000000000000000000000101110
Bit index in bitset: 0000000000000000000000000000000000000000000000000000000000101110
Blocks in region: 0000000000000000000000000000000000000000000000000000000000101111
Bit index in bitset: 0000000000000000000000000000000000000000000000000000000000101111
Blocks in region: 0000000000000000000000000000000000000000000000000000000000110001
Bit index in bitset: 0000000000000000000000000000000000000000000000000000000000110001
Blocks in region: 0000000000000000000000000000000000000000000000000000000001011001
Bit index in bitset: 0000000000000000000000000000000000000000000000000000000001011001
Blocks in region: 0000000000000000000000000000000000000000000000000000000001110001
Bit index in bitset: 0000000000000000000000000000000000000000000000000000000001110001
Blocks in region: 0000000000000000000000000000000000000000000000000000000001110011
Bit index in bitset: 0000000000000000000000000000000000000000000000000000000001110011
Blocks in region: 0000000000000000000000000000000000000000000000000000000001110100
Bit index in bitset: 0000000000000000000000000000000000000000000000000000000001110100
Blocks in region: 0000000000000000000000000000000000000000000000000000000001011010
Bit index in bitset: 0000000000000000000000000000000000000000000000000000000001011010
Blocks in region: 0000000000000000000000000000000000000000000000000000000001110010
Bit index in bitset: 0000000000000000000000000000000000000000000000000000000001110010
Blocks in region: 0000000000000000000000000000000000000000000000000000000001110011
Bit index in bitset: 0000000000000000000000000000000000000000000000000000000001110011
Blocks in region: 0000000000000000000000000000000000000000000000000000000001110100
Bit index in bitset: 0000000000000000000000000000000000000000000000000000000001110100
Blocks in region: 0000000000000000000000000000000000000000000000000000000001000001
Bit index in bitset: 0000000000000000000000000000000000000000000000000000000001000001
Blocks in region: 0000000000000000000000000000000000000000000000000000000001011011
Bit index in bitset: 0000000000000000000000000000000000000000000000000000000001011011
Blocks in region: 0000000000000000000000000000000000000000000000000000000001100001
Bit index in bitset: 0000000000000000000000000000000000000000000000000000000001100001
Blocks in region: 0000000000000000000000000000000000000000000000000000000001100010
Bit index in bitset: 0000000000000000000000000000000000000000000000000000000001100010
Blocks in region: 0000000000000000000000000000000000000000000000000000000001011100
Bit index in bitset: 0000000000000000000000000000000000000000000000000000000001011100
Blocks in region: 0000000000000000000000000000000000000000000000000000000001100000
Bit index in bitset: 0000000000000000000000000000000000000000000000000000000001100000
Blocks in region: 0000000000000000000000000000000000000000000000000000000000000010
Bit index in bitset: 0000000000000000000000000000000000000000000000000000000000000010
Blocks in region: 0000000000000000000000000000000000000000000000000000000000000100
Bit index in bitset: 0000000000000000000000000000000000000000000000000000000000000100
Blocks in region: 0000000000000000000000000000000000000000000000000000000000000011
Bit index in bitset: 0000000000000000000000000000000000000000000000000000000000000011
Blocks in region: 0000000000000000000000000000000000000000000000000000000000100001
Bit index in bitset: 0000000000000000000000000000000000000000000000000000000000100001
Blocks in region: 0000000000000000000000000000000000000000000000000000000000100010
Bit index in bitset: 0000000000000000000000000000000000000000000000000000000000100010
Blocks in region: 0000000000000000000000000000000000000000000000000000000001000000
Bit index in bitset: 0000000000000000000000000000000000000000000000000000000001000000
Blocks in region: 0000000000000000000000000000000000000000000000000000000000100011
Bit index in bitset: 0000000000000000000000000000000000000000000000000000000000100011
Blocks in region: 0000000000000000000000000000000000000000000000000000000000110010
Bit index in bitset: 0000000000000000000000000000000000000000000000000000000000110010
Blocks in region: 0000000000000000000000000000000000000000000000000000000001000110
Bit index in bitset: 0000000000000000000000000000000000000000000000000000000001000110
Blocks in region: 0000000000000000000000000000000000000000000000000000000000100100
Bit index in bitset: 0000000000000000000000000000000000000000000000000000000000100100
Blocks in region: 0000000000000000000000000000000000000000000000000000000000111000
Bit index in bitset: 0000000000000000000000000000000000000000000000000000000000111000
Blocks in region: 0000000000000000000000000000000000000000000000000000000000100101
Bit index in bitset: 0000000000000000000000000000000000000000000000000000000000100101
Blocks in region: 0000000000000000000000000000000000000000000000000000000000001010
Bit index in bitset: 0000000000000000000000000000000000000000000000000000000000001010
Blocks in region: 0000000000000000000000000000000000000000000000000000000000100110
Bit index in bitset: 0000000000000000000000000000000000000000000000000000000000100110
Blocks in region: 0000000000000000000000000000000000000000000000000000000000100111
Bit index in bitset: 0000000000000000000000000000000000000000000000000000000000100111
Blocks in region: 0000000000000000000000000000000000000000000000000000000000101000
Bit index in bitset: 0000000000000000000000000000000000000000000000000000000000101000
Blocks in region: 0000000000000000000000000000000000000000000000000000000000111111
Bit index in bitset: 0000000000000000000000000000000000000000000000000000000000111111
Blocks in region: 0000000000000000000000000000000000000000000000000000000001000000
Bit index in bitset: 0000000000000000000000000000000000000000000000000000000001000000
Blocks in region: 0000000000000000000000000000000000000000000000000000000001000001
Bit index in bitset: 0000000000000000000000000000000000000000000000000000000001000001
Blocks in region: 0000000000000000000000000000000000000000000000000000000001111110
Bit index in bitset: 0000000000000000000000000000000000000000000000000000000001111110
Blocks in region: 0000000000000000000000000000000000000000000000000000000001000010
Bit index in bitset: 0000000000000000000000000000000000000000000000000000000001000010
Blocks in region: 0000000000000000000000000000000000000000000000000000000001000011
Bit index in bitset: 0000000000000000000000000000000000000000000000000000000001000011
Blocks in region: 0000000000000000000000000000000000000000000000000000000001000100
Bit index in bitset: 0000000000000000000000000000000000000000000000000000000001000100
Blocks in region: 0000000000000000000000000000000000000000000000000000000001000101
Bit index in bitset: 0000000000000000000000000000000000000000000000000000000001000101
Blocks in region: 0000000000000000000000000000000000000000000000000000000001110010
Bit index in bitset: 0000000000000000000000000000000000000000000000000000000001110010
Blocks in region: 0000000000000000000000000000000000000000000000000000000001110011
Bit index in bitset: 0000000000000000000000000000000000000000000000000000000001110011
Blocks in region: 0000000000000000000000000000000000000000000000000000000000000111
Bit index in bitset: 0000000000000000000000000000000000000000000000000000000000000111
Blocks in region: 0000000000000000000000000000000000000000000000000000000001000110
Bit index in bitset: 0000000000000000000000000000000000000000000000000000000001000110
Blocks in region: 0000000000000000000000000000000000000000000000000000000001000111
Bit index in bitset: 0000000000000000000000000000000000000000000000000000000001000111
Blocks in region: 0000000000000000000000000000000000000000000000000000000000100010
Bit index in bitset: 0000000000000000000000000000000000000000000000000000000000100010
Blocks in region: 0000000000000000000000000000000000000000000000000000000000001111
Bit index in bitset: 0000000000000000000000000000000000000000000000000000000000001111
Blocks in region: 0000000000000000000000000000000000000000000000000000000000100011
Bit index in bitset: 0000000000000000000000000000000000000000000000000000000000100011
Blocks in region: 0000000000000000000000000000000000000000000000000000000001001000
Bit index in bitset: 0000000000000000000000000000000000000000000000000000000001001000
Blocks in region: 0000000000000000000000000000000000000000000000000000000001010100
Bit index in bitset: 0000000000000000000000000000000000000000000000000000000001010100
Blocks in region: 0000000000000000000000000000000000000000000000000000000001010101
Bit index in bitset: 0000000000000000000000000000000000000000000000000000000001010101
Blocks in region: 0000000000000000000000000000000000000000000000000000000000100110
Bit index in bitset: 0000000000000000000000000000000000000000000000000000000000100110
Blocks in region: 0000000000000000000000000000000000000000000000000000000000100111
Bit index in bitset: 0000000000000000000000000000000000000000000000000000000000100111
Blocks in region: 0000000000000000000000000000000000000000000000000000000000100101
Bit index in bitset: 0000000000000000000000000000000000000000000000000000000000100101
Blocks in region: 0000000000000000000000000000000000000000000000000000000001010110
Bit index in bitset: 0000000000000000000000000000000000000000000000000000000001010110
Blocks in region: 0000000000000000000000000000000000000000000000000000000000010110
Bit index in bitset: 0000000000000000000000000000000000000000000000000000000000010110
Blocks in region: 0000000000000000000000000000000000000000000000000000000000010111
Bit index in bitset: 0000000000000000000000000000000000000000000000000000000000010111
Blocks in region: 0000000000000000000000000000000000000000000000000000000000101110
Bit index in bitset: 0000000000000000000000000000000000000000000000000000000000101110
Blocks in region: 0000000000000000000000000000000000000000000000000000000000101111
Bit index in bitset: 0000000000000000000000000000000000000000000000000000000000101111
Blocks in region: 0000000000000000000000000000000000000000000000000000000001101000
Bit index in bitset: 0000000000000000000000000000000000000000000000000000000001101000
Blocks in region: 0000000000000000000000000000000000000000000000000000000000100100
Bit index in bitset: 0000000000000000000000000000000000000000000000000000000000100100
Blocks in region: 0000000000000000000000000000000000000000000000000000000000010101
Bit index in bitset: 0000000000000000000000000000000000000000000000000000000000010101
Blocks in region: 0000000000000000000000000000000000000000000000000000000000010110
Bit index in bitset: 0000000000000000000000000000000000000000000000000000000000010110
Blocks in region: 0000000000000000000000000000000000000000000000000000000001101001
Bit index in bitset: 0000000000000000000000000000000000000000000000000000000001101001
Blocks in region: 0000000000000000000000000000000000000000000000000000000001101010
Bit index in bitset: 0000000000000000000000000000000000000000000000000000000001101010
Blocks in region: 0000000000000000000000000000000000000000000000000000000000100111
Bit index in bitset: 0000000000000000000000000000000000000000000000000000000000100111
Blocks in region: 0000000000000000000000000000000000000000000000000000000000010100
Bit index in bitset: 0000000000000000000000000000000000000000000000000000000000010100
Blocks in region: 0000000000000000000000000000000000000000000000000000000001110101
Bit index in bitset: 0000000000000000000000000000000000000000000000000000000001110101
Blocks in region: 0000000000000000000000000000000000000000000000000000000001110110
Bit index in bitset: 0000000000000000000000000000000000000000000000000000000001110110
Blocks in region: 0000000000000000000000000000000000000000000000000000000000101000
Bit index in bitset: 0000000000000000000000000000000000000000000000000000000000101000
Blocks in region: 0000000000000000000000000000000000000000000000000000000001101011
Bit index in bitset: 0000000000000000000000000000000000000000000000000000000001101011
Blocks in region: 0000000000000000000000000000000000000000000000000000000001101100
Bit index in bitset: 0000000000000000000000000000000000000000000000000000000001101100
Blocks in region: 0000000000000000000000000000000000000000000000000000000001101101
Bit index in bitset: 0000000000000000000000000000000000000000000000000000000001101101
Blocks in region: 0000000000000000000000000000000000000000000000000000000001101110
Bit index in bitset: 0000000000000000000000000000000000000000000000000000000001101110
Blocks in region: 0000000000000000000000000000000000000000000000000000000000010111
Bit index in bitset: 0000000000000000000000000000000000000000000000000000000000010111
Blocks in region: 0000000000000000000000000000000000000000000000000000000001110101
Bit index in bitset: 0000000000000000000000000000000000000000000000000000000001110101
Blocks in region: 0000000000000000000000000000000000000000000000000000000001110110
Bit index in bitset: 0000000000000000000000000000000000000000000000000000000001110110
Blocks in region: 0000000000000000000000000000000000000000000000000000000001111011
Bit index in bitset: 0000000000000000000000000000000000000000000000000000000001111011
Blocks in region: 0000000000000000000000000000000000000000000000000000000001111100
Bit index in bitset: 0000000000000000000000000000000000000000000000000000000001111100
Blocks in region: 0000000000000000000000000000000000000000000000000000000001111110
Bit index in bitset: 0000000000000000000000000000000000000000000000000000000001111110
Blocks in region: 0000000000000000000000000000000000000000000000000000000001111101
Bit index in bitset: 0000000000000000000000000000000000000000000000000000000001111101
Blocks in region: 0000000000000000000000000000000000000000000000000000000000001010
Bit index in bitset: 0000000000000000000000000000000000000000000000000000000000001010
Blocks in region: 0000000000000000000000000000000000000000000000000000000000001011
Bit index in bitset: 0000000000000000000000000000000000000000000000000000000000001011
Blocks in region: 0000000000000000000000000000000000000000000000000000000000010010
Bit index in bitset: 0000000000000000000000000000000000000000000000000000000000010010
Blocks in region: 0000000000000000000000000000000000000000000000000000000001110111
Bit index in bitset: 0000000000000000000000000000000000000000000000000000000001110111
Blocks in region: 0000000000000000000000000000000000000000000000000000000001111000
Bit index in bitset: 0000000000000000000000000000000000000000000000000000000001111000
Blocks in region: 0000000000000000000000000000000000000000000000000000000000000101
Bit index in bitset: 0000000000000000000000000000000000000000000000000000000000000101
Blocks in region: 0000000000000000000000000000000000000000000000000000000000000110
Bit index in bitset: 0000000000000000000000000000000000000000000000000000000000000110
Blocks in region: 0000000000000000000000000000000000000000000000000000000001000011
Bit index in bitset: 0000000000000000000000000000000000000000000000000000000001000011
Blocks in region: 0000000000000000000000000000000000000000000000000000000000010100
Bit index in bitset: 0000000000000000000000000000000000000000000000000000000000010100
Blocks in region: 0000000000000000000000000000000000000000000000000000000001001100
Bit index in bitset: 0000000000000000000000000000000000000000000000000000000001001100
Blocks in region: 0000000000000000000000000000000000000000000000000000000001001101
Bit index in bitset: 0000000000000000000000000000000000000000000000000000000001001101
Blocks in region: 0000000000000000000000000000000000000000000000000000000000010011
Bit index in bitset: 0000000000000000000000000000000000000000000000000000000000010011
Blocks in region: 0000000000000000000000000000000000000000000000000000000000011100
Bit index in bitset: 0000000000000000000000000000000000000000000000000000000000011100
Blocks in region: 0000000000000000000000000000000000000000000000000000000000011101
Bit index in bitset: 0000000000000000000000000000000000000000000000000000000000011101
Blocks in region: 0000000000000000000000000000000000000000000000000000000000010000
Bit index in bitset: 0000000000000000000000000000000000000000000000000000000000010000
Blocks in region: 0000000000000000000000000000000000000000000000000000000000001011
Bit index in bitset: 0000000000000000000000000000000000000000000000000000000000001011
Blocks in region: 0000000000000000000000000000000000000000000000000000000000001001
Bit index in bitset: 0000000000000000000000000000000000000000000000000000000000001001
Blocks in region: 0000000000000000000000000000000000000000000000000000000000010001
Bit index in bitset: 0000000000000000000000000000000000000000000000000000000000010001
Blocks in region: 0000000000000000000000000000000000000000000000000000000000011110
Bit index in bitset: 0000000000000000000000000000000000000000000000000000000000011110
Blocks in region: 0000000000000000000000000000000000000000000000000000000000001111
Bit index in bitset: 0000000000000000000000000000000000000000000000000000000000001111
Blocks in region: 0000000000000000000000000000000000000000000000000000000000010000
Bit index in bitset: 0000000000000000000000000000000000000000000000000000000000010000
Blocks in region: 0000000000000000000000000000000000000000000000000000000000001111
Bit index in bitset: 0000000000000000000000000000000000000000000000000000000000001111
Blocks in region: 0000000000000000000000000000000000000000000000000000000000010001
Bit index in bitset: 0000000000000000000000000000000000000000000000000000000000010001
Blocks in region: 0000000000000000000000000000000000000000000000000000000000011001
Bit index in bitset: 0000000000000000000000000000000000000000000000000000000000011001
Blocks in region: 0000000000000000000000000000000000000000000000000000000000000000
Bit index in bitset: 0000000000000000000000000000000000000000000000000000000000000000
Blocks in region: 0000000000000000000000000000000000000000000000000000000000011010
Bit index in bitset: 0000000000000000000000000000000000000000000000000000000000011010
Blocks in region: 0000000000000000000000000000000000000000000000000000000001000111
Bit index in bitset: 0000000000000000000000000000000000000000000000000000000001000111
Blocks in region: 0000000000000000000000000000000000000000000000000000000000011011
Bit index in bitset: 0000000000000000000000000000000000000000000000000000000000011011
Blocks in region: 0000000000000000000000000000000000000000000000000000000000011100
Bit index in bitset: 0000000000000000000000000000000000000000000000000000000000011100
Blocks in region: 0000000000000000000000000000000000000000000000000000000000011101
Bit index in bitset: 0000000000000000000000000000000000000000000000000000000000011101
Blocks in region: 0000000000000000000000000000000000000000000000000000000001001110
Bit index in bitset: 0000000000000000000000000000000000000000000000000000000001001110
Blocks in region: 0000000000000000000000000000000000000000000000000000000001001111
Bit index in bitset: 0000000000000000000000000000000000000000000000000000000001001111
Blocks in region: 0000000000000000000000000000000000000000000000000000000001100001
Bit index in bitset: 0000000000000000000000000000000000000000000000000000000001100001
Blocks in region: 0000000000000000000000000000000000000000000000000000000001001000
Bit index in bitset: 0000000000000000000000000000000000000000000000000000000001001000
Blocks in region: 0000000000000000000000000000000000000000000000000000000001000100
Bit index in bitset: 0000000000000000000000000000000000000000000000000000000001000100
Blocks in region: 0000000000000000000000000000000000000000000000000000000000110100
Bit index in bitset: 0000000000000000000000000000000000000000000000000000000000110100
Blocks in region: 0000000000000000000000000000000000000000000000000000000000110100
Bit index in bitset: 0000000000000000000000000000000000000000000000000000000000110100
Blocks in region: 0000000000000000000000000000000000000000000000000000000000110100
Bit index in bitset: 0000000000000000000000000000000000000000000000000000000000110100
Blocks in region: 0000000000000000000000000000000000000000000000000000000000110100
Bit index in bitset: 0000000000000000000000000000000000000000000000000000000000110100
Blocks in region: 0000000000000000000000000000000000000000000000000000000000110100
Bit index in bitset: 0000000000000000000000000000000000000000000000000000000000110100
Blocks in region: 0000000000000000000000000000000000000000000000000000000000110100
Bit index in bitset: 0000000000000000000000000000000000000000000000000000000000110100
Blocks in region: 0000000000000000000000000000000000000000000000000000000000110100
Bit index in bitset: 0000000000000000000000000000000000000000000000000000000000110100
Blocks in region: 0000000000000000000000000000000000000000000000000000000000110100
Bit index in bitset: 0000000000000000000000000000000000000000000000000000000000110100
Blocks in region: 0000000000000000000000000000000000000000000000000000000000110100
Bit index in bitset: 0000000000000000000000000000000000000000000000000000000000110100
Blocks in region: 0000000000000000000000000000000000000000000000000000000000110100
Bit index in bitset: 0000000000000000000000000000000000000000000000000000000000110100
Blocks in region: 0000000000000000000000000000000000000000000000000000000000110100
Bit index in bitset: 0000000000000000000000000000000000000000000000000000000000110100
Blocks in region: 0000000000000000000000000000000000000000000000000000000000110100
Bit index in bitset: 0000000000000000000000000000000000000000000000000000000000110100
Blocks in region: 0000000000000000000000000000000000000000000000000000000000110100
Bit index in bitset: 0000000000000000000000000000000000000000000000000000000000110100
Blocks in region: 0000000000000000000000000000000000000000000000000000000000110100
Bit index in bitset: 0000000000000000000000000000000000000000000000000000000000110100
Blocks in region: 0000000000000000000000000000000000000000000000000000000000110100
Bit index in bitset: 0000000000000000000000000000000000000000000000000000000000110100
Blocks in region: 0000000000000000000000000000000000000000000000000000000000110100
Bit index in bitset: 0000000000000000000000000000000000000000000000000000000000110100
Blocks in region: 0000000000000000000000000000000000000000000000000000000000110100
Bit index in bitset: 0000000000000000000000000000000000000000000000000000000000110100
Blocks in region: 0000000000000000000000000000000000000000000000000000000000110100
Bit index in bitset: 0000000000000000000000000000000000000000000000000000000000110100
Blocks in region: 0000000000000000000000000000000000000000000000000000000000110100
Bit index in bitset: 0000000000000000000000000000000000000000000000000000000000110100
Blocks in region: 0000000000000000000000000000000000000000000000000000000001000101
Bit index in bitset: 0000000000000000000000000000000000000000000000000000000001000101
Blocks in region: 0000000000000000000000000000000000000000000000000000000000000011
Bit index in bitset: 0000000000000000000000000000000000000000000000000000000000000011
Blocks in region: 0000000000000000000000000000000000000000000000000000000001000110
Bit index in bitset: 0000000000000000000000000000000000000000000000000000000001000110
Blocks in region: 0000000000000000000000000000000000000000000000000000000000111111
Bit index in bitset: 0000000000000000000000000000000000000000000000000000000000111111
Blocks in region: 0000000000000000000000000000000000000000000000000000000001110000
Bit index in bitset: 0000000000000000000000000000000000000000000000000000000001110000
Blocks in region: 0000000000000000000000000000000000000000000000000000000001000010
Bit index in bitset: 0000000000000000000000000000000000000000000000000000000001000010
Blocks in region: 0000000000000000000000000000000000000000000000000000000000010011
Bit index in bitset: 0000000000000000000000000000000000000000000000000000000000010011
Blocks in region: 0000000000000000000000000000000000000000000000000000000001111010
Bit index in bitset: 0000000000000000000000000000000000000000000000000000000001111010
Blocks in region: 0000000000000000000000000000000000000000000000000000000000111100
Bit index in bitset: 0000000000000000000000000000000000000000000000000000000000111100
Blocks in region: 0000000000000000000000000000000000000000000000000000000000110001
Bit index in bitset: 0000000000000000000000000000000000000000000000000000000000110001
Blocks in region: 0000000000000000000000000000000000000000000000000000000000101000
Bit index in bitset: 0000000000000000000000000000000000000000000000000000000000101000
Blocks in region: 0000000000000000000000000000000000000000000000000000000001110100
Bit index in bitset: 0000000000000000000000000000000000000000000000000000000001110100
Blocks in region: 0000000000000000000000000000000000000000000000000000000000011101
Bit index in bitset: 0000000000000000000000000000000000000000000000000000000000011101
Blocks in region: 0000000000000000000000000000000000000000000000000000000001010010
Bit index in bitset: 0000000000000000000000000000000000000000000000000000000001010010
Blocks in region: 0000000000000000000000000000000000000000000000000000000000011000
Bit index in bitset: 0000000000000000000000000000000000000000000000000000000000011000
Blocks in region: 0000000000000000000000000000000000000000000000000000000001000101
Bit index in bitset: 0000000000000000000000000000000000000000000000000000000001000101
Blocks in region: 0000000000000000000000000000000000000000000000000000000000011011
Bit index in bitset: 0000000000000000000000000000000000000000000000000000000000011011
Blocks in region: 0000000000000000000000000000000000000000000000000000000001001011
Bit index in bitset: 0000000000000000000000000000000000000000000000000000000001001011
Blocks in region: 0000000000000000000000000000000000000000000000000000000000011001
Bit index in bitset: 0000000000000000000000000000000000000000000000000000000000011001
Blocks in region: 0000000000000000000000000000000000000000000000000000000001001000
Bit index in bitset: 0000000000000000000000000000000000000000000000000000000001001000
Blocks in region: 0000000000000000000000000000000000000000000000000000000000011010
Bit index in bitset: 0000000000000000000000000000000000000000000000000000000000011010
Blocks in region: 0000000000000000000000000000000000000000000000000000000001001001
Bit index in bitset: 0000000000000000000000000000000000000000000000000000000001001001
Blocks in region: 0000000000000000000000000000000000000000000000000000000001000000
Bit index in bitset: 0000000000000000000000000000000000000000000000000000000001000000
Blocks in region: 0000000000000000000000000000000000000000000000000000000001000001
Bit index in bitset: 0000000000000000000000000000000000000000000000000000000001000001
Blocks in region: 0000000000000000000000000000000000000000000000000000000001000111
Bit index in bitset: 0000000000000000000000000000000000000000000000000000000001000111
Blocks in region: 0000000000000000000000000000000000000000000000000000000001001000
Bit index in bitset: 0000000000000000000000000000000000000000000000000000000001001000
Blocks in region: 0000000000000000000000000000000000000000000000000000000001001001
Bit index in bitset: 0000000000000000000000000000000000000000000000000000000001001001
Blocks in region: 0000000000000000000000000000000000000000000000000000000001011111
Bit index in bitset: 0000000000000000000000000000000000000000000000000000000001011111
Blocks in region: 0000000000000000000000000000000000000000000000000000000001010101
Bit index in bitset: 0000000000000000000000000000000000000000000000000000000001010101
Blocks in region: 0000000000000000000000000000000000000000000000000000000001010110
Bit index in bitset: 0000000000000000000000000000000000000000000000000000000001010110
Blocks in region: 0000000000000000000000000000000000000000000000000000000001010111
Bit index in bitset: 0000000000000000000000000000000000000000000000000000000001010111
Blocks in region: 0000000000000000000000000000000000000000000000000000000001111110
Bit index in bitset: 0000000000000000000000000000000000000000000000000000000001111110
Blocks in region: 0000000000000000000000000000000000000000000000000000000001001010
Bit index in bitset: 0000000000000000000000000000000000000000000000000000000001001010
[...]
Blocks in region: 0000000000000000000000000000000000000000000000000000000000101111
Bit index in bitset: 0000000000000000000000000000000000000000000000000000000000101111
Blocks in region: 0000000000000000000000000000000000000000000000000000000000110000
Bit index in bitset: 0000000000000000000000000000000000000000000000000000000000110000
Blocks in region: 0000000000000000000000000000000000000000000000000000000000110001
Bit index in bitset: 0000000000000000000000000000000000000000000000000000000000110001
Blocks in region: 0000000000000000000000000000000000000000000000000000000000110010
Bit index in bitset: 0000000000000000000000000000000000000000000000000000000000110010
Blocks in region: 0000000000000000000000000000000000000000000000000000000000110011
Bit index in bitset: 0000000000000000000000000000000000000000000000000000000000110011
Blocks in region: 0000000000000000000000000000000000000000000000000000000000110100
Bit index in bitset: 0000000000000000000000000000000000000000000000000000000000110100
Blocks in region: 0000000000000000000000000000000000000000000000000000000000110101
Bit index in bitset: 0000000000000000000000000000000000000000000000000000000000110101
Blocks in region: 0000000000000000000000000000000000000000000000000000000000110110
Bit index in bitset: 0000000000000000000000000000000000000000000000000000000000110110
Blocks in region: 0000000000000000000000000000000000000000000000000000000000110111
Bit index in bitset: 0000000000000000000000000000000000000000000000000000000000110111
Blocks in region: 0000000000000000000000000000000000000000000000000000000000111000
Bit index in bitset: 0000000000000000000000000000000000000000000000000000000000111000
Blocks in region: 0000000000000000000000000000000000000000000000000000000000111001
Bit index in bitset: 0000000000000000000000000000000000000000000000000000000000111001
Blocks in region: 0000000000000000000000000000000000000000000000000000000000111010
Bit index in bitset: 0000000000000000000000000000000000000000000000000000000000111010
Blocks in region: 0000000000000000000000000000000000000000000000000000000000111011
Bit index in bitset: 0000000000000000000000000000000000000000000000000000000000111011
Blocks in region: 0000000000000000000000000000000000000000000000000000000000100011
Bit index in bitset: 0000000000000000000000000000000000000000000000000000000000100011
Blocks in region: 0000000000000000000000000000000000000000000000000000000000101100
Bit index in bitset: 0000000000000000000000000000000000000000000000000000000000101100
Blocks in region: 0000000000000000000000000000000000000000000000000000000000100011
Bit index in bitset: 0000000000000000000000000000000000000000000000000000000000100011
Blocks in region: 0000000000000000000000000000000000000000000000000000000000100100
Bit index in bitset: 0000000000000000000000000000000000000000000000000000000000100100
Blocks in region: 0000000000000000000000000000000000000000000000000000000001010010
Bit index in bitset: 0000000000000000000000000000000000000000000000000000000001010010
Blocks in region: 0000000000000000000000000000000000000000000000000000000000110011
Bit index in bitset: 0000000000000000000000000000000000000000000000000000000000110011
Blocks in region: 0000000000000000000000000000000000000000000000000000000000110100
Bit index in bitset: 0000000000000000000000000000000000000000000000000000000000110100
Blocks in region: 0000000000000000000000000000000000000000000000000000000000110101
Bit index in bitset: 0000000000000000000000000000000000000000000000000000000000110101
Blocks in region: 0000000000000000000000000000000000000000000000000000000000000011
Bit index in bitset: 0000000000000000000000000000000000000000000000000000000000000011
Blocks in region: 0000000000000000000000000000000000000000000000000000000000000100
Bit index in bitset: 0000000000000000000000000000000000000000000000000000000000000100
Blocks in region: 0000000000000000000000000000000000000000000000000000000000110110
Bit index in bitset: 0000000000000000000000000000000000000000000000000000000000110110
Blocks in region: 0000000000000000000000000000000000000000000000000000000000110001
Bit index in bitset: 0000000000000000000000000000000000000000000000000000000000110001
Blocks in region: 0000000000000000000000000000000000000000000000000000000000110010
Bit index in bitset: 0000000000000000000000000000000000000000000000000000000000110010
Blocks in region: 0000000000000000000000000000000000000000000000000000000000110111
Bit index in bitset: 0000000000000000000000000000000000000000000000000000000000110111
Blocks in region: 0000000000000000000000000000000000000000000000000000000000100101
Bit index in bitset: 0000000000000000000000000000000000000000000000000000000000100101
Blocks in region: 0000000000000000000000000000000000000000000000000000000000100010
Bit index in bitset: 0000000000000000000000000000000000000000000000000000000000100010
Blocks in region: 0000000000000000000000000000000000000000000000000000000001001011
Bit index in bitset: 0000000000000000000000000000000000000000000000000000000001001011
Blocks in region: 0000000000000000000000000000000000000000000000000000000000111101
Bit index in bitset: 0000000000000000000000000000000000000000000000000000000000111101
Blocks in region: 0000000000000000000000000000000000000000000000000000000000101011
Bit index in bitset: 0000000000000000000000000000000000000000000000000000000000101011
Blocks in region: 0000000000000000000000000000000000000000000000000000000000101100
Bit index in bitset: 0000000000000000000000000000000000000000000000000000000000101100
Blocks in region: 0000000000000000000000000000000000000000000000000000000000101101
Bit index in bitset: 0000000000000000000000000000000000000000000000000000000000101101
Blocks in region: 0000000000000000000000000000000000000000000000000000000000100001
Bit index in bitset: 0000000000000000000000000000000000000000000000000000000000100001
Blocks in region: 0000000000000000000000000000000000000000000000000000000000100011
Bit index in bitset: 0000000000000000000000000000000000000000000000000000000000100011
Blocks in region: 0000000000000000000000000000000000000000000000000000000000001011
Bit index in bitset: 0000000000000000000000000000000000000000000000000000000000001011
Sum: 4 
Blocks in region: 0000000000000000000000000000000000000000000000000000000001001000
Bit index in bitset: 0000000000000000000000000000000000000000000000000000000001001000
Blocks in region: 0000000000000000000000000000000000000000000000000000000001001001
Bit index in bitset: 0000000000000000000000000000000000000000000000000000000001001001
Blocks in region: 0000000000000000000000000000000000000000000000000000000001001010
Bit index in bitset: 0000000000000000000000000000000000000000000000000000000001001010
Blocks in region: 0000000000000000000000000000000000000000000000000000000000010110
Bit index in bitset: 0000000000000000000000000000000000000000000000000000000000010110
Blocks in region: 0000000000000000000000000000000000000000000000000000000001001011
Bit index in bitset: 0000000000000000000000000000000000000000000000000000000001001011
Blocks in region: 0000000000000000000000000000000000000000000000000000000000010101
Bit index in bitset: 0000000000000000000000000000000000000000000000000000000000010101
Blocks in region: 0000000000000000000000000000000000000000000000000000000000010110
Bit index in bitset: 0000000000000000000000000000000000000000000000000000000000010110
Blocks in region: 0000000000000000000000000000000000000000000000000000000000110101
Bit index in bitset: 0000000000000000000000000000000000000000000000000000000000110101
Blocks in region: 0000000000000000000000000000000000000000000000000000000000110110
Bit index in bitset: 0000000000000000000000000000000000000000000000000000000000110110
Blocks in region: 0000000000000000000000000000000000000000000000000000000000111011
Bit index in bitset: 0000000000000000000000000000000000000000000000000000000000111011
Blocks in region: 0000000000000000000000000000000000000000000000000000000001001010
Bit index in bitset: 0000000000000000000000000000000000000000000000000000000001001010
Blocks in region: 0000000000000000000000000000000000000000000000000000000001001011
Bit index in bitset: 0000000000000000000000000000000000000000000000000000000001001011
Blocks in region: 0000000000000000000000000000000000000000000000000000000000111100
Bit index in bitset: 0000000000000000000000000000000000000000000000000000000000111100
Blocks in region: 0000000000000000000000000000000000000000000000000000000001100011
Bit index in bitset: 0000000000000000000000000000000000000000000000000000000001100011
Blocks in region: 0000000000000000000000000000000000000000000000000000000001100100
Bit index in bitset: 0000000000000000000000000000000000000000000000000000000001100100
Blocks in region: 0000000000000000000000000000000000000000000000000000000000111101
Bit index in bitset: 0000000000000000000000000000000000000000000000000000000000111101
Blocks in region: 0000000000000000000000000000000000000000000000000000000000111111
Bit index in bitset: 0000000000000000000000000000000000000000000000000000000000111111
Blocks in region: 0000000000000000000000000000000000000000000000000000000001000001
Bit index in bitset: 0000000000000000000000000000000000000000000000000000000001000001
Blocks in region: 0000000000000000000000000000000000000000000000000000000001000010
Bit index in bitset: 0000000000000000000000000000000000000000000000000000000001000010
Blocks in region: 0000000000000000000000000000000000000000000000000000000001100110
Bit index in bitset: 0000000000000000000000000000000000000000000000000000000001100110
Blocks in region: 0000000000000000000000000000000000000000000000000000000001100111
Bit index in bitset: 0000000000000000000000000000000000000000000000000000000001100111
Blocks in region: 0000000000000000000000000000000000000000000000000000000000100001
Bit index in bitset: 0000000000000000000000000000000000000000000000000000000000100001
Blocks in region: 0000000000000000000000000000000000000000000000000000000000100010
Bit index in bitset: 0000000000000000000000000000000000000000000000000000000000100010
Blocks in region: 0000000000000000000000000000000000000000000000000000000001010001
Bit index in bitset: 0000000000000000000000000000000000000000000000000000000001010001
Blocks in region: 0000000000000000000000000000000000000000000000000000000001010010
Bit index in bitset: 0000000000000000000000000000000000000000000000000000000001010010
Blocks in region: 0000000000000000000000000000000000000000000000000000000000111010
Bit index in bitset: 0000000000000000000000000000000000000000000000000000000000111010
Blocks in region: 0000000000000000000000000000000000000000000000000000000000000001
Bit index in bitset: 0000000000000000000000000000000000000000000000000000000000000001
Blocks in region: 0000000000000000000000000000000000000000000000000000000000111100
Bit index in bitset: 0000000000000000000000000000000000000000000000000000000000111100
Blocks in region: 0000000000000000000000000000000000000000000000000000000000010111
Bit index in bitset: 0000000000000000000000000000000000000000000000000000000000010111
Blocks in region: 0000000000000000000000000000000000000000000000000000000000011000
Bit index in bitset: 0000000000000000000000000000000000000000000000000000000000011000
Blocks in region: 0000000000000000000000000000000000000000000000000000000000111101
Bit index in bitset: 0000000000000000000000000000000000000000000000000000000000111101
Blocks in region: 0000000000000000000000000000000000000000000000000000000000111111
Bit index in bitset: 0000000000000000000000000000000000000000000000000000000000111111
Blocks in region: 0000000000000000000000000000000000000000000000000000000000000000
Bit index in bitset: 0000000000000000000000000000000000000000000000000000000000000000
Blocks in region: 0000000000000000000000000000000000000000000000000000000001101011
Bit index in bitset: 0000000000000000000000000000000000000000000000000000000001101011
Blocks in region: 0000000000000000000000000000000000000000000000000000000001101100
Bit index in bitset: 0000000000000000000000000000000000000000000000000000000001101100
Blocks in region: 0000000000000000000000000000000000000000000000000000000001101101
Bit index in bitset: 0000000000000000000000000000000000000000000000000000000001101101
Blocks in region: 0000000000000000000000000000000000000000000000000000000001101110
Bit index in bitset: 0000000000000000000000000000000000000000000000000000000001101110
Blocks in region: 0000000000000000000000000000000000000000000000000000000001101111
Bit index in bitset: 0000000000000000000000000000000000000000000000000000000001101111
Blocks in region: 0000000000000000000000000000000000000000000000000000000001110000
Bit index in bitset: 0000000000000000000000000000000000000000000000000000000001110000
Blocks in region: 0000000000000000000000000000000000000000000000000000000001110001
Bit index in bitset: 0000000000000000000000000000000000000000000000000000000001110001
Blocks in region: 0000000000000000000000000000000000000000000000000000000001110010
Bit index in bitset: 0000000000000000000000000000000000000000000000000000000001110010
Blocks in region: 0000000000000000000000000000000000000000000000000000000001110011
Bit index in bitset: 0000000000000000000000000000000000000000000000000000000001110011
Blocks in region: 0000000000000000000000000000000000000000000000000000000001110100
Bit index in bitset: 0000000000000000000000000000000000000000000000000000000001110100
Blocks in region: 0000000000000000000000000000000000000000000000000000000001111011
Bit index in bitset: 0000000000000000000000000000000000000000000000000000000001111011
Blocks in region: 0000000000000000000000000000000000000000000000000000000001111100
Bit index in bitset: 0000000000000000000000000000000000000000000000000000000001111100
Blocks in region: 0000000000000000000000000000000000000000000000000000000001110110
Bit index in bitset: 0000000000000000000000000000000000000000000000000000000001110110
Blocks in region: 0000000000000000000000000000000000000000000000000000000001110111
Bit index in bitset: 0000000000000000000000000000000000000000000000000000000001110111
Blocks in region: 0000000000000000000000000000000000000000000000000000000001111000
Bit index in bitset: 0000000000000000000000000000000000000000000000000000000001111000
Blocks in region: 0000000000000000000000000000000000000000000000000000000001111001
Bit index in bitset: 0000000000000000000000000000000000000000000000000000000001111001
Blocks in region: 0000000000000000000000000000000000000000000000000000000001111010
Bit index in bitset: 0000000000000000000000000000000000000000000000000000000001111010
Blocks in region: 0000000000000000000000000000000000000000000000000000000001111110
Bit index in bitset: 0000000000000000000000000000000000000000000000000000000001111110
Blocks in region: 0000000000000000000000000000000000000000000000000000000000111110
Bit index in bitset: 0000000000000000000000000000000000000000000000000000000000111110
Blocks in region: 0000000000000000000000000000000000000000000000000000000001001100
Bit index in bitset: 0000000000000000000000000000000000000000000000000000000001001100
Blocks in region: 0000000000000000000000000000000000000000000000000000000001000000
Bit index in bitset: 0000000000000000000000000000000000000000000000000000000001000000
Blocks in region: 0000000000000000000000000000000000000000000000000000000001000001
Bit index in bitset: 0000000000000000000000000000000000000000000000000000000001000001
Blocks in region: 0000000000000000000000000000000000000000000000000000000001001001
Bit index in bitset: 0000000000000000000000000000000000000000000000000000000001001001
Blocks in region: 0000000000000000000000000000000000000000000000000000000001001010
Bit index in bitset: 0000000000000000000000000000000000000000000000000000000001001010
Blocks in region: 0000000000000000000000000000000000000000000000000000000001011101
Bit index in bitset: 0000000000000000000000000000000000000000000000000000000001011101
Blocks in region: 0000000000000000000000000000000000000000000000000000000001000011
Bit index in bitset: 0000000000000000000000000000000000000000000000000000000001000011
Blocks in region: 0000000000000000000000000000000000000000000000000000000001000100
Bit index in bitset: 0000000000000000000000000000000000000000000000000000000001000100
Blocks in region: 0000000000000000000000000000000000000000000000000000000001000101
Bit index in bitset: 0000000000000000000000000000000000000000000000000000000001000101
Blocks in region: 0000000000000000000000000000000000000000000000000000000001000110
Bit index in bitset: 0000000000000000000000000000000000000000000000000000000001000110
Blocks in region: 0000000000000000000000000000000000000000000000000000000001010101
Bit index in bitset: 0000000000000000000000000000000000000000000000000000000001010101
Blocks in region: 0000000000000000000000000000000000000000000000000000000001001000
Bit index in bitset: 0000000000000000000000000000000000000000000000000000000001001000
Blocks in region: 0000000000000000000000000000000000000000000000000000000000100100
Bit index in bitset: 0000000000000000000000000000000000000000000000000000000000100100
Blocks in region: 0000000000000000000000000000000000000000000000000000000001001101
Bit index in bitset: 0000000000000000000000000000000000000000000000000000000001001101
Blocks in region: 0000000000000000000000000000000000000000000000000000000001001111
Bit index in bitset: 0000000000000000000000000000000000000000000000000000000001001111
Blocks in region: 0000000000000000000000000000000000000000000000000000000001010000
Bit index in bitset: 0000000000000000000000000000000000000000000000000000000001010000
Blocks in region: 0000000000000000000000000000000000000000000000000000000001001110
Bit index in bitset: 0000000000000000000000000000000000000000000000000000000001001110
Blocks in region: 0000000000000000000000000000000000000000000000000000000000010001
Bit index in bitset: 0000000000000000000000000000000000000000000000000000000000010001
Blocks in region: 0000000000000000000000000000000000000000000000000000000000100101
Bit index in bitset: 0000000000000000000000000000000000000000000000000000000000100101
Blocks in region: 0000000000000000000000000000000000000000000000000000000000001110
Bit index in bitset: 0000000000000000000000000000000000000000000000000000000000001110
Blocks in region: 0000000000000000000000000000000000000000000000000000000000001111
Bit index in bitset: 0000000000000000000000000000000000000000000000000000000000001111
Blocks in region: 0000000000000000000000000000000000000000000000000000000000100111
Bit index in bitset: 0000000000000000000000000000000000000000000000000000000000100111
Blocks in region: 0000000000000000000000000000000000000000000000000000000000100110
Bit index in bitset: 0000000000000000000000000000000000000000000000000000000000100110
Blocks in region: 0000000000000000000000000000000000000000000000000000000001010001
Bit index in bitset: 0000000000000000000000000000000000000000000000000000000001010001
Blocks in region: 0000000000000000000000000000000000000000000000000000000001010010
Bit index in bitset: 0000000000000000000000000000000000000000000000000000000001010010
Blocks in region: 0000000000000000000000000000000000000000000000000000000000100011
Bit index in bitset: 0000000000000000000000000000000000000000000000000000000000100011
Packet address: 0000000000000000000000000000000000000000000000111110100011000000
Blocks in region: 0000000000000000000000000000000000000000000000000000000000011110
Bit index in bitset: 0000000000000000000000000000000000000000000000000000000000011110
Blocks in region: 0000000000000000000000000000000000000000000000000000000000011111
Bit index in bitset: 0000000000000000000000000000000000000000000000000000000000011111
Exiting @ tick 761915000 because exiting with last active thread context
