Global frequency set at 1000000000000 ticks per second
Hey, I am a DBICache component + Deepanjali
Hey, I am a RDBI component
Number of sets in DBI: 32Number of bits required to index into DBI: 5
gem5 Simulator System.  https://www.gem5.org
gem5 is copyrighted software; use the --copyright option for details.

gem5 version 22.0.0.2
gem5 compiled Mar 14 2023 13:56:09
gem5 started Mar 14 2023 13:57:57
gem5 executing on v100-gpu-4, pid 14496
command line: build/X86/gem5.opt --stats-file =dbi.txt configs/learning_gem5/DebugDBI/DBICache/config.py test-benchmark/test -n 3000 -k 4 -t 1

Beginning simulation!
Number of elements: 3000, Number of cache blocks: 4, Number of iterations: 1
Packet address in binary: 0000000000000000000000000000000000000000000000111110000011000000
Region address of the packet: 0000000000000000000000000000000000000000000000000000000000011111
Region address of the RDBI entry 0000000000000000000000000000000000000000000000000000000000011111
Dirty bitset: 00000100000000000000000000010000000000000000000000000000000000000000000000000000000000000000100000000000000000010000000000000000
Cache block pointer: 0
Packet address in binary: 0000000000000000000000000000000000000000000000111110000100000000
Region address of the packet: 0000000000000000000000000000000000000000000000000000000000011111
Region address of the RDBI entry 0000000000000000000000000000000000000000000000000000000000011111
Dirty bitset: 00000100000000000000000000010000000000000000000000000000000000000000000000000000000000000000100000000000000000010000000000000000
Cache block pointer: 0
Sum: 4 
Packet address in binary: 0000000000000000000000000000000000000000000000111110100100000000
Region address of the packet: 0000000000000000000000000000000000000000000000000000000000011111
Region address of the RDBI entry 0000000000000000000000000000000000000000000000000000000000011111
Dirty bitset: 00000100000000000000000000010000000000000000000000000000000000000000000000000000000000000000100000000000001000010000000000000000
Cache block pointer: 0
Packet address in binary: 0000000000000000000000000000000000000000000000111110100011000000
Region address of the packet: 0000000000000000000000000000000000000000000000000000000000011111
Region address of the RDBI entry 0000000000000000000000000000000000000000000000000000000000011111
Dirty bitset: 00000100000000000000000000010000000000000000000000000000000000000000000000000000000000000000100000000000001000010000000000000000
Cache block pointer: 0x4c4a340
