Global frequency set at 1000000000000 ticks per second
Hey, I am a DBICache component + Deepanjali
Hey, I am a RDBI component
Number of sets in DBI: 32gem5 Simulator System.  https://www.gem5.org
gem5 is copyrighted software; use the --copyright option for details.

gem5 version 22.0.0.2
gem5 compiled Mar 15 2023 19:23:24
gem5 started Mar 15 2023 19:25:40
gem5 executing on v100-gpu-4, pid 5423
command line: build/X86/gem5.opt --stats-file =dbi.txt configs/learning_gem5/DebugDBI/DBICache/config.py test-benchmark/test -n 9000 -k 4 -t 1

Beginning simulation!
Blocks in region: 112
Blocks in region: 56
Blocks in region: 38
Blocks in region: 55
Blocks in region: 39
Blocks in region: 113
Blocks in region: 122
Blocks in region: 0
Blocks in region: 39
Blocks in region: 40
Blocks in region: 41
Blocks in region: 42
Blocks in region: 40
Blocks in region: 49
Blocks in region: 50
Blocks in region: 55
Blocks in region: 49
Blocks in region: 41
Blocks in region: 123
Blocks in region: 124
Blocks in region: 43
Blocks in region: 125
Blocks in region: 42
Blocks in region: 45
Blocks in region: 44
Blocks in region: 126
Blocks in region: 46
Blocks in region: 43
Blocks in region: 44
Blocks in region: 45
Blocks in region: 46
Blocks in region: 51
Blocks in region: 52
Blocks in region: 99
Blocks in region: 53
Blocks in region: 118
Blocks in region: 100
Blocks in region: 119
Blocks in region: 101
Blocks in region: 102
Blocks in region: 103
Blocks in region: 120
Blocks in region: 54
Blocks in region: 82
Blocks in region: 95
Blocks in region: 56
Blocks in region: 127
Blocks in region: 80
Blocks in region: 81
Blocks in region: 104
Blocks in region: 87
Blocks in region: 83
Blocks in region: 84
Blocks in region: 105
Blocks in region: 47
Blocks in region: 51
Blocks in region: 54
Blocks in region: 42
Blocks in region: 74
Blocks in region: 43
Blocks in region: 52
Blocks in region: 48
Blocks in region: 121
Blocks in region: 38
Blocks in region: 22
Blocks in region: 53
Blocks in region: 23
Blocks in region: 114
Blocks in region: 68
Blocks in region: 57
Blocks in region: 24
Blocks in region: 116
Blocks in region: 115
Blocks in region: 25
Blocks in region: 52
Blocks in region: 26
Blocks in region: 27
Blocks in region: 6
Blocks in region: 5
Blocks in region: 32
Blocks in region: 58
Blocks in region: 4
Blocks in region: 33
Blocks in region: 31
Blocks in region: 59
Blocks in region: 60
Blocks in region: 61
Blocks in region: 30
Blocks in region: 62
Blocks in region: 36
Blocks in region: 28
Blocks in region: 29
Blocks in region: 80
Blocks in region: 67
Blocks in region: 81
Blocks in region: 34
Blocks in region: 1
Blocks in region: 51
Blocks in region: 2
Blocks in region: 3
Blocks in region: 4
Blocks in region: 5
Blocks in region: 117
Blocks in region: 82
Blocks in region: 66
Blocks in region: 35
Blocks in region: 71
Blocks in region: 72
Blocks in region: 49
Blocks in region: 62
Blocks in region: 61
Blocks in region: 73
Blocks in region: 50
Blocks in region: 74
Blocks in region: 48
Blocks in region: 50
Blocks in region: 51
Blocks in region: 76
Blocks in region: 111
Blocks in region: 79
Blocks in region: 88
Blocks in region: 89
Blocks in region: 47
Blocks in region: 47
Blocks in region: 125
Blocks in region: 33
Blocks in region: 48
Blocks in region: 56
Blocks in region: 57
Blocks in region: 106
Blocks in region: 58
Blocks in region: 57
Blocks in region: 53
Blocks in region: 46
Blocks in region: 54
Blocks in region: 56
Blocks in region: 49
Blocks in region: 70
Blocks in region: 80
Blocks in region: 59
Blocks in region: 91
Blocks in region: 60
Blocks in region: 61
Blocks in region: 81
Blocks in region: 50
Blocks in region: 69
Blocks in region: 84
Blocks in region: 51
Blocks in region: 87
Blocks in region: 88
Blocks in region: 89
Blocks in region: 90
Blocks in region: 83
Blocks in region: 52
Blocks in region: 1
Blocks in region: 60
Blocks in region: 61
Blocks in region: 53
Blocks in region: 54
Blocks in region: 90
Blocks in region: 44
Blocks in region: 45
Blocks in region: 114
Blocks in region: 37
Blocks in region: 46
Blocks in region: 82
Blocks in region: 91
Blocks in region: 92
Blocks in region: 1
Blocks in region: 127
Blocks in region: 2
Blocks in region: 2
Blocks in region: 64
Blocks in region: 0
Blocks in region: 3
Blocks in region: 1
Blocks in region: 4
Blocks in region: 4
Blocks in region: 5
Blocks in region: 6
Blocks in region: 93
Blocks in region: 7
Blocks in region: 8
Blocks in region: 126
Blocks in region: 94
Blocks in region: 95
Blocks in region: 86
Blocks in region: 96
Blocks in region: 42
Blocks in region: 43
Blocks in region: 44
Blocks in region: 19
Blocks in region: 102
Blocks in region: 94
Blocks in region: 103
Blocks in region: 122
Blocks in region: 123
Blocks in region: 97
Blocks in region: 63
Blocks in region: 98
Blocks in region: 120
Blocks in region: 99
Blocks in region: 72
Blocks in region: 121
Blocks in region: 73
Blocks in region: 74
Blocks in region: 122
Blocks in region: 100
Blocks in region: 5
Blocks in region: 6
Blocks in region: 7
Blocks in region: 71
Blocks in region: 123
Blocks in region: 124
Blocks in region: 125
Blocks in region: 75
Blocks in region: 126
Blocks in region: 76
Blocks in region: 102
Blocks in region: 103
Blocks in region: 104
Blocks in region: 105
Blocks in region: 10
Blocks in region: 106
Blocks in region: 92
Blocks in region: 103
Blocks in region: 110
Blocks in region: 109
Blocks in region: 104
Blocks in region: 107
Blocks in region: 105
Blocks in region: 106
Blocks in region: 58
Blocks in region: 59
Blocks in region: 64
Blocks in region: 102
Blocks in region: 107
Blocks in region: 108
Blocks in region: 109
Blocks in region: 110
Blocks in region: 111
Blocks in region: 93
Blocks in region: 100
Blocks in region: 101
Blocks in region: 113
Blocks in region: 114
Blocks in region: 115
Blocks in region: 116
Blocks in region: 95
Blocks in region: 117
Blocks in region: 99
Blocks in region: 118
Blocks in region: 119
Blocks in region: 96
Blocks in region: 120
Blocks in region: 97
Blocks in region: 121
Blocks in region: 122
Blocks in region: 94
Blocks in region: 123
Blocks in region: 124
Blocks in region: 125
Blocks in region: 43
Blocks in region: 44
Blocks in region: 40
Blocks in region: 47
Blocks in region: 20
Blocks in region: 43
Blocks in region: 48
Blocks in region: 46
Blocks in region: 31
Blocks in region: 32
Blocks in region: 84
Blocks in region: 85
Blocks in region: 8
Blocks in region: 45
Blocks in region: 44
Blocks in region: 9
Blocks in region: 10
Blocks in region: 18
Blocks in region: 19
Blocks in region: 12
Blocks in region: 13
Blocks in region: 36
Blocks in region: 37
Blocks in region: 17
Blocks in region: 20
Blocks in region: 21
Blocks in region: 35
Blocks in region: 38
Blocks in region: 39
Blocks in region: 50
Blocks in region: 52
Blocks in region: 51
Blocks in region: 52
Blocks in region: 40
Blocks in region: 86
Blocks in region: 111
Blocks in region: 87
Blocks in region: 112
Blocks in region: 88
Blocks in region: 46
Blocks in region: 47
Blocks in region: 49
Blocks in region: 89
Blocks in region: 113
Blocks in region: 115
Blocks in region: 116
Blocks in region: 90
Blocks in region: 114
Blocks in region: 115
Blocks in region: 116
Blocks in region: 65
Blocks in region: 91
Blocks in region: 97
Blocks in region: 98
Blocks in region: 92
Blocks in region: 96
Blocks in region: 2
Blocks in region: 4
Blocks in region: 3
Blocks in region: 33
Blocks in region: 34
Blocks in region: 64
Blocks in region: 35
Blocks in region: 50
Blocks in region: 70
Blocks in region: 36
Blocks in region: 56
Blocks in region: 37
Blocks in region: 10
Blocks in region: 38
Blocks in region: 39
Blocks in region: 40
Blocks in region: 63
Blocks in region: 64
Blocks in region: 65
Blocks in region: 126
Blocks in region: 66
Blocks in region: 67
Blocks in region: 68
Blocks in region: 69
Blocks in region: 114
Blocks in region: 115
Blocks in region: 7
Blocks in region: 70
Blocks in region: 71
Blocks in region: 34
Blocks in region: 15
Blocks in region: 35
Blocks in region: 72
Blocks in region: 84
Blocks in region: 85
Blocks in region: 38
Blocks in region: 39
Blocks in region: 37
Blocks in region: 86
Blocks in region: 22
Blocks in region: 23
Blocks in region: 46
Blocks in region: 47
Blocks in region: 104
Blocks in region: 36
Blocks in region: 21
Blocks in region: 22
Blocks in region: 105
Blocks in region: 106
Blocks in region: 39
Blocks in region: 20
Blocks in region: 117
Blocks in region: 118
Blocks in region: 40
Blocks in region: 107
Blocks in region: 108
Blocks in region: 109
Blocks in region: 110
Blocks in region: 23
Blocks in region: 117
Blocks in region: 118
Blocks in region: 123
Blocks in region: 124
Blocks in region: 126
Blocks in region: 125
Blocks in region: 10
Blocks in region: 11
Blocks in region: 18
Blocks in region: 119
Blocks in region: 120
Blocks in region: 5
Blocks in region: 6
Blocks in region: 67
Blocks in region: 20
Blocks in region: 76
Blocks in region: 77
Blocks in region: 19
Blocks in region: 28
Blocks in region: 29
Blocks in region: 16
Blocks in region: 11
Blocks in region: 9
Blocks in region: 17
Blocks in region: 30
Blocks in region: 15
Blocks in region: 16
Blocks in region: 15
Blocks in region: 17
Blocks in region: 25
Blocks in region: 0
Blocks in region: 26
Blocks in region: 71
Blocks in region: 27
Blocks in region: 28
Blocks in region: 29
Blocks in region: 78
Blocks in region: 79
Blocks in region: 97
Blocks in region: 72
Blocks in region: 68
Blocks in region: 52
Blocks in region: 52
Blocks in region: 52
Blocks in region: 52
Blocks in region: 52
Blocks in region: 52
Blocks in region: 52
Blocks in region: 52
Blocks in region: 52
Blocks in region: 52
Blocks in region: 52
Blocks in region: 52
Blocks in region: 52
Blocks in region: 52
Blocks in region: 52
Blocks in region: 52
Blocks in region: 52
Blocks in region: 52
Blocks in region: 52
Blocks in region: 69
Blocks in region: 3
Blocks in region: 70
Blocks in region: 63
Blocks in region: 112
Blocks in region: 66
Blocks in region: 19
Blocks in region: 122
Blocks in region: 60
Blocks in region: 49
Blocks in region: 40
Blocks in region: 116
Blocks in region: 29
Blocks in region: 82
Blocks in region: 24
Blocks in region: 69
Blocks in region: 27
Blocks in region: 75
Blocks in region: 25
Blocks in region: 72
Blocks in region: 26
Blocks in region: 73
Blocks in region: 64
Blocks in region: 65
Blocks in region: 71
Blocks in region: 72
Blocks in region: 73
Blocks in region: 95
Blocks in region: 85
Blocks in region: 86
Blocks in region: 87
Blocks in region: 126
Blocks in region: 74
Blocks in region: 127
Blocks in region: 88
Blocks in region: 18
Blocks in region: 62
Blocks in region: 64
Blocks in region: 124
Blocks in region: 117
Blocks in region: 63
Blocks in region: 7
Blocks in region: 29
Blocks in region: 30
Blocks in region: 31
Blocks in region: 32
Blocks in region: 96
Blocks in region: 46
Blocks in region: 47
Blocks in region: 33
Blocks in region: 24
Blocks in region: 34
Blocks in region: 35
Blocks in region: 25
Blocks in region: 26
Blocks in region: 27
Blocks in region: 28
Blocks in region: 29
Blocks in region: 36
Blocks in region: 37
Blocks in region: 33
Blocks in region: 34
Blocks in region: 38
Blocks in region: 121
Blocks in region: 122
Blocks in region: 112
Blocks in region: 113
Blocks in region: 77
Blocks in region: 78
Blocks in region: 79
Blocks in region: 80
Blocks in region: 53
Blocks in region: 83
Blocks in region: 84
Blocks in region: 14
Blocks in region: 55
Blocks in region: 13
Blocks in region: 0
Blocks in region: 11
Blocks in region: 18
Blocks in region: 17
Blocks in region: 12
Blocks in region: 15
Blocks in region: 13
Blocks in region: 14
Blocks in region: 53
Blocks in region: 54
Blocks in region: 55
Blocks in region: 85
Blocks in region: 10
Blocks in region: 86
Blocks in region: 87
Blocks in region: 88
Blocks in region: 89
Blocks in region: 94
Blocks in region: 90
Blocks in region: 91
Blocks in region: 92
Blocks in region: 8
Blocks in region: 93
Blocks in region: 9
Blocks in region: 30
Blocks in region: 95
Blocks in region: 16
Blocks in region: 96
Blocks in region: 6
Blocks in region: 7
Blocks in region: 31
Blocks in region: 97
Blocks in region: 32
Blocks in region: 98
Blocks in region: 99
Blocks in region: 7
Blocks in region: 100
Blocks in region: 9
Blocks in region: 10
Blocks in region: 19
Blocks in region: 101
Blocks in region: 102
Blocks in region: 103
Blocks in region: 104
Blocks in region: 5
Blocks in region: 6
Blocks in region: 48
Blocks in region: 92
Blocks in region: 127
Blocks in region: 93
Blocks in region: 94
Blocks in region: 95
Blocks in region: 96
Blocks in region: 97
Blocks in region: 98
Blocks in region: 99
Blocks in region: 100
Blocks in region: 101
Blocks in region: 102
Blocks in region: 103
Blocks in region: 104
Blocks in region: 105
Blocks in region: 106
Blocks in region: 107
Blocks in region: 108
Blocks in region: 109
Blocks in region: 110
Blocks in region: 111
Blocks in region: 112
Blocks in region: 113
Blocks in region: 114
Blocks in region: 115
Blocks in region: 116
Blocks in region: 117
Blocks in region: 118
Blocks in region: 119
Blocks in region: 120
Blocks in region: 121
Blocks in region: 122
Blocks in region: 123
Blocks in region: 124
Blocks in region: 125
Blocks in region: 126
Blocks in region: 13
Blocks in region: 110
Blocks in region: 46
Blocks in region: 111
Blocks in region: 112
Blocks in region: 1
Blocks in region: 2
Blocks in region: 47
Blocks in region: 4
Blocks in region: 48
Blocks in region: 113
Blocks in region: 4
Blocks in region: 49
Blocks in region: 3
Blocks in region: 50
Blocks in region: 51
Blocks in region: 5
Blocks in region: 52
Blocks in region: 7
Blocks in region: 6
Blocks in region: 114
Blocks in region: 115
Blocks in region: 116
Blocks in region: 117
Blocks in region: 16
Blocks in region: 118
Blocks in region: 120
Blocks in region: 121
Blocks in region: 122
Blocks in region: 74
Blocks in region: 75
Blocks in region: 124
Blocks in region: 125
Blocks in region: 87
Blocks in region: 73
Blocks in region: 42
Blocks in region: 74
Blocks in region: 79
Blocks in region: 81
Blocks in region: 112
Blocks in region: 118
Blocks in region: 116
Blocks in region: 34
Blocks in region: 35
Blocks in region: 36
Blocks in region: 37
Blocks in region: 39
Blocks in region: 40
Blocks in region: 35
Blocks in region: 87
Blocks in region: 88
Blocks in region: 107
Blocks in region: 108
Blocks in region: 109
Blocks in region: 95
Blocks in region: 110
Blocks in region: 80
Blocks in region: 19
Blocks in region: 54
Blocks in region: 113
Blocks in region: 92
Blocks in region: 93
Blocks in region: 94
Blocks in region: 95
Blocks in region: 20
Blocks in region: 96
Blocks in region: 127
Blocks in region: 0
Blocks in region: 102
Blocks in region: 103
Blocks in region: 104
Blocks in region: 107
Blocks in region: 108
Blocks in region: 106
Blocks in region: 109
Blocks in region: 110
Blocks in region: 111
Blocks in region: 41
Blocks in region: 42
Blocks in region: 43
Blocks in region: 46
Blocks in region: 47
Blocks in region: 48
Blocks in region: 110
Blocks in region: 49
Blocks in region: 88
Blocks in region: 37
Blocks in region: 76
Blocks in region: 77
Blocks in region: 57
Blocks in region: 58
Blocks in region: 17
Blocks in region: 59
Blocks in region: 60
Blocks in region: 61
Blocks in region: 62
Blocks in region: 42
Blocks in region: 43
Blocks in region: 41
Blocks in region: 44
Blocks in region: 109
Blocks in region: 110
Blocks in region: 48
Blocks in region: 16
Blocks in region: 63
Blocks in region: 66
Blocks in region: 67
Blocks in region: 68
Blocks in region: 69
Blocks in region: 21
Blocks in region: 70
Blocks in region: 72
Blocks in region: 123
Blocks in region: 96
Blocks in region: 97
Blocks in region: 124
Blocks in region: 98
Blocks in region: 39
Blocks in region: 111
Blocks in region: 112
Blocks in region: 113
Blocks in region: 114
Blocks in region: 115
Blocks in region: 116
Blocks in region: 117
Blocks in region: 118
Blocks in region: 119
Blocks in region: 120
Blocks in region: 121
Blocks in region: 122
Blocks in region: 31
Blocks in region: 32
Blocks in region: 71
Blocks in region: 22
Blocks in region: 23
Blocks in region: 24
Blocks in region: 25
Blocks in region: 26
Blocks in region: 27
Blocks in region: 28
Blocks in region: 29
Blocks in region: 30
Blocks in region: 33
Blocks in region: 34
Blocks in region: 89
Blocks in region: 50
Blocks in region: 107
Blocks in region: 3
Blocks in region: 108
Blocks in region: 109
Blocks in region: 108
Blocks in region: 110
Blocks in region: 12
Blocks in region: 13
Blocks in region: 14
Blocks in region: 15
Blocks in region: 16
Blocks in region: 35
Blocks in region: 17
Blocks in region: 22
Blocks in region: 23
Blocks in region: 28
Blocks in region: 63
Blocks in region: 29
Blocks in region: 30
Blocks in region: 31
Blocks in region: 32
Blocks in region: 33
Blocks in region: 34
Blocks in region: 35
Blocks in region: 36
Blocks in region: 37
Blocks in region: 38
Blocks in region: 39
Blocks in region: 40
Blocks in region: 41
Blocks in region: 42
Blocks in region: 43
Blocks in region: 44
Blocks in region: 45
Blocks in region: 46
Blocks in region: 47
Blocks in region: 48
Blocks in region: 49
Blocks in region: 50
Blocks in region: 51
Blocks in region: 52
Blocks in region: 53
Blocks in region: 54
Blocks in region: 55
Blocks in region: 56
Blocks in region: 57
Blocks in region: 58
Blocks in region: 59
Blocks in region: 60
Blocks in region: 61
Blocks in region: 62
Blocks in region: 24
Blocks in region: 64
Blocks in region: 111
Blocks in region: 51
Blocks in region: 79
Blocks in region: 72
Blocks in region: 73
Blocks in region: 61
Blocks in region: 62
Blocks in region: 64
Blocks in region: 69
Blocks in region: 63
Blocks in region: 74
Blocks in region: 75
Blocks in region: 76
Blocks in region: 96
Blocks in region: 77
Blocks in region: 0
Blocks in region: 78
Blocks in region: 117
Blocks in region: 79
Blocks in region: 80
Blocks in region: 81
Blocks in region: 82
Blocks in region: 83
Blocks in region: 87
Blocks in region: 88
Blocks in region: 89
Blocks in region: 95
Blocks in region: 125
Blocks in region: 126
Blocks in region: 127
Blocks in region: 96
Blocks in region: 0
Blocks in region: 1
Blocks in region: 2
Blocks in region: 97
Blocks in region: 3
Blocks in region: 4
Blocks in region: 5
Blocks in region: 98
Blocks in region: 6
Blocks in region: 7
Blocks in region: 8
Blocks in region: 99
Blocks in region: 9
Blocks in region: 10
Blocks in region: 11
Blocks in region: 100
Blocks in region: 12
Blocks in region: 13
Blocks in region: 101
Blocks in region: 14
Blocks in region: 15
Blocks in region: 102
Blocks in region: 16
Blocks in region: 103
Blocks in region: 17
Blocks in region: 104
Blocks in region: 18
Blocks in region: 105
Blocks in region: 19
Blocks in region: 20
Blocks in region: 106
Blocks in region: 21
Blocks in region: 22
Blocks in region: 23
Blocks in region: 107
Blocks in region: 24
Blocks in region: 25
Blocks in region: 108
Blocks in region: 26
Blocks in region: 27
Blocks in region: 28
Blocks in region: 109
Blocks in region: 29
Blocks in region: 30
Blocks in region: 31
Blocks in region: 111
Blocks in region: 32
Blocks in region: 33
Blocks in region: 112
Blocks in region: 34
Blocks in region: 113
Blocks in region: 35
Blocks in region: 36
Blocks in region: 37
Blocks in region: 114
Blocks in region: 38
Blocks in region: 115
Blocks in region: 39
Blocks in region: 40
Blocks in region: 116
Blocks in region: 41
Blocks in region: 117
Blocks in region: 42
Blocks in region: 118
Blocks in region: 43
Blocks in region: 44
Blocks in region: 45
Blocks in region: 119
Blocks in region: 46
Blocks in region: 47
Blocks in region: 48
Blocks in region: 120
Blocks in region: 49
Blocks in region: 50
Blocks in region: 51
Blocks in region: 121
Blocks in region: 52
Blocks in region: 53
Blocks in region: 54
Blocks in region: 122
Blocks in region: 55
Blocks in region: 123
Blocks in region: 56
Blocks in region: 124
Blocks in region: 57
Blocks in region: 125
Blocks in region: 58
Blocks in region: 126
Blocks in region: 59
Blocks in region: 127
Blocks in region: 60
Blocks in region: 61
Blocks in region: 62
Blocks in region: 64
Blocks in region: 63
Blocks in region: 0
Blocks in region: 1
Blocks in region: 65
Blocks in region: 2
Blocks in region: 3
Blocks in region: 4
Blocks in region: 66
Blocks in region: 5
Blocks in region: 6
Blocks in region: 7
Blocks in region: 67
Blocks in region: 8
Blocks in region: 9
Blocks in region: 10
Blocks in region: 68
Blocks in region: 11
Blocks in region: 12
Blocks in region: 13
Blocks in region: 69
Blocks in region: 14
Blocks in region: 15
Blocks in region: 16
Blocks in region: 70
Blocks in region: 17
Blocks in region: 18
Blocks in region: 19
Blocks in region: 71
Blocks in region: 20
Blocks in region: 21
Blocks in region: 22
Blocks in region: 72
Blocks in region: 23
Blocks in region: 24
Blocks in region: 25
Blocks in region: 73
Blocks in region: 26
Blocks in region: 27
Blocks in region: 28
Blocks in region: 74
Blocks in region: 29
Blocks in region: 30
Blocks in region: 31
Blocks in region: 75
Blocks in region: 32
Blocks in region: 33
Blocks in region: 34
Blocks in region: 76
Blocks in region: 35
Blocks in region: 77
Blocks in region: 36
Blocks in region: 78
Blocks in region: 79
Blocks in region: 37
Blocks in region: 38
Blocks in region: 39
Blocks in region: 80
Blocks in region: 81
Blocks in region: 40
Blocks in region: 41
Blocks in region: 42
Blocks in region: 82
Blocks in region: 43
Blocks in region: 83
Blocks in region: 44
Blocks in region: 84
Blocks in region: 45
Blocks in region: 46
Blocks in region: 85
Blocks in region: 86
Blocks in region: 47
Blocks in region: 87
Blocks in region: 48
Blocks in region: 49
Blocks in region: 88
Blocks in region: 50
Blocks in region: 51
Blocks in region: 52
Blocks in region: 89
Blocks in region: 53
Blocks in region: 54
Blocks in region: 92
Blocks in region: 55
Blocks in region: 93
Blocks in region: 56
Blocks in region: 94
Blocks in region: 57
Blocks in region: 58
Blocks in region: 95
Blocks in region: 59
Blocks in region: 96
Blocks in region: 60
Blocks in region: 61
Blocks in region: 62
Blocks in region: 97
Blocks in region: 63
Blocks in region: 64
Blocks in region: 65
Blocks in region: 98
Blocks in region: 66
Blocks in region: 67
Blocks in region: 68
Blocks in region: 99
Blocks in region: 69
Blocks in region: 70
Blocks in region: 71
Blocks in region: 100
Blocks in region: 72
Blocks in region: 73
Blocks in region: 74
Blocks in region: 101
Blocks in region: 75
Blocks in region: 76
Blocks in region: 102
Blocks in region: 77
Blocks in region: 78
Blocks in region: 79
Blocks in region: 103
Blocks in region: 80
Blocks in region: 81
Blocks in region: 82
Blocks in region: 104
Blocks in region: 83
Blocks in region: 84
Blocks in region: 85
Blocks in region: 105
Blocks in region: 86
Blocks in region: 87
Blocks in region: 88
Blocks in region: 106
Blocks in region: 89
Blocks in region: 90
Blocks in region: 91
Blocks in region: 107
Blocks in region: 92
Blocks in region: 93
Blocks in region: 94
Blocks in region: 108
Blocks in region: 95
Blocks in region: 96
Blocks in region: 97
Blocks in region: 109
Blocks in region: 98
Blocks in region: 99
Blocks in region: 100
Blocks in region: 110
Blocks in region: 101
Blocks in region: 102
Blocks in region: 103
Blocks in region: 111
Blocks in region: 104
Blocks in region: 105
Blocks in region: 106
Blocks in region: 112
Blocks in region: 107
Blocks in region: 108
Blocks in region: 113
Blocks in region: 109
Blocks in region: 110
Blocks in region: 111
Blocks in region: 114
Blocks in region: 112
Blocks in region: 113
Blocks in region: 114
Blocks in region: 115
Blocks in region: 115
Blocks in region: 116
Blocks in region: 117
Blocks in region: 116
Blocks in region: 118
Blocks in region: 119
Blocks in region: 120
Blocks in region: 121
Blocks in region: 121
Blocks in region: 122
Blocks in region: 122
Blocks in region: 123
Blocks in region: 124
Blocks in region: 123
Blocks in region: 125
Blocks in region: 126
Blocks in region: 127
Blocks in region: 124
Blocks in region: 0
Blocks in region: 1
Blocks in region: 2
Blocks in region: 125
Blocks in region: 3
Blocks in region: 4
Blocks in region: 66
Blocks in region: 5
Blocks in region: 6
Blocks in region: 69
Blocks in region: 7
Blocks in region: 72
Blocks in region: 8
Blocks in region: 73
Blocks in region: 9
Blocks in region: 74
Blocks in region: 10
Blocks in region: 75
Blocks in region: 11
Blocks in region: 76
Blocks in region: 12
Blocks in region: 77
Blocks in region: 13
Blocks in region: 78
Blocks in region: 14
Blocks in region: 80
Blocks in region: 15
Blocks in region: 16
Blocks in region: 81
Blocks in region: 17
Blocks in region: 18
Blocks in region: 82
Blocks in region: 19
Blocks in region: 20
Blocks in region: 83
Blocks in region: 21
Blocks in region: 84
Blocks in region: 22
Blocks in region: 23
Blocks in region: 85
Blocks in region: 24
Blocks in region: 25
Blocks in region: 26
Blocks in region: 86
Blocks in region: 27
Blocks in region: 28
Blocks in region: 29
Blocks in region: 87
Blocks in region: 30
Blocks in region: 31
Blocks in region: 88
Blocks in region: 32
Blocks in region: 33
Blocks in region: 89
Blocks in region: 34
Blocks in region: 35
Blocks in region: 90
Blocks in region: 36
Blocks in region: 37
Blocks in region: 91
Blocks in region: 38
Blocks in region: 39
Blocks in region: 92
Blocks in region: 40
Blocks in region: 41
Blocks in region: 93
Blocks in region: 42
Blocks in region: 43
Blocks in region: 44
Blocks in region: 94
Blocks in region: 45
Blocks in region: 46
Blocks in region: 95
Blocks in region: 47
Blocks in region: 48
Blocks in region: 96
Blocks in region: 49
Blocks in region: 50
Blocks in region: 97
Blocks in region: 51
Blocks in region: 52
Blocks in region: 53
Blocks in region: 98
Blocks in region: 54
Blocks in region: 55
Blocks in region: 56
Blocks in region: 99
Blocks in region: 57
Blocks in region: 58
Blocks in region: 100
Blocks in region: 59
Blocks in region: 60
Blocks in region: 101
Blocks in region: 61
Blocks in region: 62
Blocks in region: 102
Blocks in region: 63
Blocks in region: 0
Blocks in region: 103
Blocks in region: 1
Blocks in region: 104
Blocks in region: 2
Blocks in region: 3
Blocks in region: 105
Blocks in region: 4
Blocks in region: 5
Blocks in region: 106
Blocks in region: 6
Blocks in region: 107
Blocks in region: 7
Blocks in region: 109
Blocks in region: 8
Blocks in region: 9
Blocks in region: 110
Blocks in region: 10
Blocks in region: 11
Blocks in region: 12
Blocks in region: 111
Blocks in region: 13
Blocks in region: 14
Blocks in region: 15
Blocks in region: 112
Blocks in region: 16
Blocks in region: 17
Blocks in region: 18
Blocks in region: 113
Blocks in region: 19
Blocks in region: 114
Blocks in region: 20
Blocks in region: 21
Blocks in region: 22
Blocks in region: 115
Blocks in region: 23
Blocks in region: 24
Blocks in region: 116
Blocks in region: 25
Blocks in region: 117
Blocks in region: 26
Blocks in region: 27
Blocks in region: 28
Blocks in region: 118
Blocks in region: 29
Blocks in region: 30
Blocks in region: 31
Blocks in region: 119
Blocks in region: 120
Blocks in region: 32
Blocks in region: 33
Blocks in region: 34
Blocks in region: 121
Blocks in region: 35
Blocks in region: 36
Blocks in region: 37
Blocks in region: 122
Blocks in region: 38
Blocks in region: 39
Blocks in region: 123
Blocks in region: 40
Blocks in region: 41
Blocks in region: 42
Blocks in region: 124
Blocks in region: 43
Blocks in region: 44
Blocks in region: 45
Blocks in region: 125
Blocks in region: 46
Blocks in region: 126
Blocks in region: 47
Blocks in region: 48
Blocks in region: 49
Blocks in region: 127
Blocks in region: 50
Blocks in region: 51
Blocks in region: 52
Blocks in region: 0
Blocks in region: 53
Blocks in region: 1
Blocks in region: 54
Blocks in region: 55
Blocks in region: 56
Blocks in region: 2
Blocks in region: 57
Blocks in region: 58
Blocks in region: 59
Blocks in region: 3
Blocks in region: 60
Blocks in region: 4
Blocks in region: 61
Blocks in region: 62
Blocks in region: 63
Blocks in region: 5
Blocks in region: 64
Blocks in region: 65
Blocks in region: 66
Blocks in region: 6
Blocks in region: 67
Blocks in region: 7
Blocks in region: 68
Blocks in region: 69
Blocks in region: 70
Blocks in region: 8
Blocks in region: 71
Blocks in region: 72
Blocks in region: 73
Blocks in region: 9
Blocks in region: 74
Blocks in region: 10
Blocks in region: 75
Blocks in region: 76
Blocks in region: 77
Blocks in region: 11
Blocks in region: 78
Blocks in region: 79
Blocks in region: 80
Blocks in region: 12
Blocks in region: 81
Blocks in region: 13
Blocks in region: 82
Blocks in region: 83
Blocks in region: 84
Blocks in region: 14
Blocks in region: 85
Blocks in region: 86
Blocks in region: 87
Blocks in region: 15
Blocks in region: 88
Blocks in region: 16
Blocks in region: 89
Blocks in region: 90
Blocks in region: 91
Blocks in region: 17
Blocks in region: 92
Blocks in region: 93
Blocks in region: 94
Blocks in region: 18
Blocks in region: 95
Blocks in region: 96
Blocks in region: 19
Blocks in region: 97
Blocks in region: 98
Blocks in region: 99
Blocks in region: 20
Blocks in region: 100
Blocks in region: 101
Blocks in region: 102
Blocks in region: 21
Blocks in region: 103
Blocks in region: 22
Blocks in region: 104
Blocks in region: 105
Blocks in region: 106
Blocks in region: 23
Blocks in region: 107
Blocks in region: 108
Blocks in region: 109
Blocks in region: 24
Blocks in region: 110
Blocks in region: 25
Blocks in region: 111
Blocks in region: 112
Blocks in region: 113
Blocks in region: 26
Blocks in region: 114
Blocks in region: 115
Blocks in region: 116
Blocks in region: 27
Blocks in region: 117
Blocks in region: 28
Blocks in region: 118
Blocks in region: 119
Blocks in region: 120
Blocks in region: 29
Blocks in region: 121
Blocks in region: 122
Blocks in region: 123
Blocks in region: 30
Blocks in region: 124
Blocks in region: 31
Blocks in region: 125
Blocks in region: 126
Blocks in region: 127
Blocks in region: 32
Blocks in region: 0
Blocks in region: 1
Blocks in region: 2
Blocks in region: 33
Blocks in region: 3
Blocks in region: 34
Blocks in region: 4
Blocks in region: 35
Blocks in region: 36
Blocks in region: 5
Blocks in region: 37
Blocks in region: 6
Blocks in region: 38
Blocks in region: 7
Blocks in region: 8
Blocks in region: 9
Blocks in region: 39
Blocks in region: 10
Blocks in region: 11
Blocks in region: 12
Blocks in region: 40
Blocks in region: 13
Blocks in region: 41
Blocks in region: 14
Blocks in region: 42
Blocks in region: 43
Blocks in region: 15
Blocks in region: 16
Blocks in region: 44
Blocks in region: 17
Blocks in region: 45
Blocks in region: 18
Blocks in region: 19
Blocks in region: 12
Blocks in region: 20
Blocks in region: 13
Blocks in region: 21
Blocks in region: 14
Blocks in region: 22
Blocks in region: 15
Blocks in region: 23
Blocks in region: 16
Blocks in region: 24
Blocks in region: 25
Blocks in region: 17
Blocks in region: 26
Blocks in region: 18
Blocks in region: 27
Blocks in region: 28
Blocks in region: 19
Blocks in region: 29
Blocks in region: 20
Blocks in region: 30
Blocks in region: 21
Blocks in region: 31
Blocks in region: 22
Blocks in region: 32
Blocks in region: 23
Blocks in region: 33
Blocks in region: 34
Blocks in region: 35
Blocks in region: 24
Blocks in region: 36
Blocks in region: 37
Blocks in region: 25
Blocks in region: 38
Blocks in region: 30
Blocks in region: 35
Blocks in region: 37
Blocks in region: 39
Blocks in region: 38
Blocks in region: 40
Blocks in region: 43
Blocks in region: 44
Blocks in region: 41
Blocks in region: 78
Blocks in region: 42
Blocks in region: 79
Blocks in region: 43
Blocks in region: 44
Blocks in region: 80
Blocks in region: 45
Blocks in region: 46
Blocks in region: 81
Blocks in region: 47
Blocks in region: 48
Blocks in region: 49
Blocks in region: 82
Blocks in region: 50
Blocks in region: 51
Blocks in region: 52
Blocks in region: 83
Blocks in region: 53
Blocks in region: 54
Blocks in region: 55
Blocks in region: 84
Blocks in region: 87
Blocks in region: 56
Blocks in region: 88
Blocks in region: 90
Blocks in region: 57
Blocks in region: 91
Blocks in region: 58
Blocks in region: 90
Blocks in region: 91
Blocks in region: 51
Blocks in region: 92
Blocks in region: 74
Blocks in region: 93
Blocks in region: 94
Blocks in region: 95
Blocks in region: 104
Blocks in region: 30
Blocks in region: 105
Blocks in region: 31
Blocks in region: 106
Blocks in region: 107
Blocks in region: 108
Blocks in region: 109
Blocks in region: 58
Blocks in region: 59
Blocks in region: 60
Blocks in region: 61
Blocks in region: 62
Blocks in region: 63
Blocks in region: 64
Blocks in region: 88
Blocks in region: 86
Blocks in region: 118
Blocks in region: 87
Blocks in region: 88
Blocks in region: 66
Blocks in region: 89
Blocks in region: 52
Blocks in region: 53
Blocks in region: 54
Blocks in region: 56
Blocks in region: 57
Blocks in region: 55
Blocks in region: 90
Blocks in region: 101
Blocks in region: 102
Blocks in region: 70
Blocks in region: 71
Blocks in region: 65
Blocks in region: 110
Blocks in region: 111
Blocks in region: 117
Blocks in region: 99
Blocks in region: 54
Blocks in region: 106
Blocks in region: 118
Blocks in region: 110
Blocks in region: 111
Blocks in region: 54
Blocks in region: 59
Blocks in region: 60
Blocks in region: 61
Blocks in region: 55
Blocks in region: 56
Blocks in region: 62
Blocks in region: 57
Blocks in region: 59
Blocks in region: 63
Blocks in region: 60
Blocks in region: 63
Blocks in region: 81
Blocks in region: 107
Blocks in region: 5
Blocks in region: 100
Blocks in region: 81
Blocks in region: 125
Blocks in region: 0
Blocks in region: 88
Blocks in region: 66
Blocks in region: 9
Blocks in region: 10
Blocks in region: 102
Blocks in region: 88
Blocks in region: 11
Blocks in region: 95
Blocks in region: 20
Blocks in region: 11
Blocks in region: 12
Blocks in region: 93
Blocks in region: 25
Blocks in region: 1
Blocks in region: 103
Blocks in region: 121
Blocks in region: 27
Blocks in region: 87
Blocks in region: 100
Blocks in region: 42
Blocks in region: 60
Blocks in region: 54
Blocks in region: 35
Blocks in region: 82
Blocks in region: 127
Blocks in region: 84
Blocks in region: 65
Blocks in region: 40
Blocks in region: 97
Blocks in region: 2
Blocks in region: 76
Blocks in region: 117
Blocks in region: 17
Blocks in region: 18
Blocks in region: 84
Blocks in region: 77
Blocks in region: 116
Blocks in region: 48
Blocks in region: 32
Blocks in region: 23
Blocks in region: 80
Blocks in region: 115
Blocks in region: 123
Blocks in region: 55
Blocks in region: 44
Blocks in region: 104
Blocks in region: 49
Blocks in region: 50
Blocks in region: 96
Blocks in region: 97
Blocks in region: 91
Blocks in region: 75
Blocks in region: 76
Blocks in region: 77
Blocks in region: 85
Blocks in region: 89
Blocks in region: 124
Blocks in region: 3
Blocks in region: 47
Blocks in region: 28
Blocks in region: 53
Blocks in region: 83
Blocks in region: 122
Blocks in region: 79
Blocks in region: 90
Blocks in region: 55
Blocks in region: 78
Blocks in region: 80
Blocks in region: 122
Blocks in region: 91
Blocks in region: 4
Blocks in region: 78
Blocks in region: 72
Blocks in region: 58
Blocks in region: 94
Blocks in region: 78
Blocks in region: 119
Blocks in region: 45
Blocks in region: 125
Blocks in region: 2
Blocks in region: 86
Blocks in region: 112
Blocks in region: 117
Blocks in region: 114
Blocks in region: 6
Blocks in region: 7
Blocks in region: 115
Blocks in region: 5
Blocks in region: 75
Blocks in region: 85
Blocks in region: 78
Blocks in region: 88
Blocks in region: 91
Blocks in region: 45
Blocks in region: 86
Blocks in region: 40
Blocks in region: 8
Blocks in region: 81
Blocks in region: 86
Blocks in region: 7
Blocks in region: 41
Blocks in region: 84
Blocks in region: 6
Blocks in region: 41
Blocks in region: 83
Blocks in region: 18
Blocks in region: 109
Blocks in region: 110
Blocks in region: 26
Blocks in region: 23
Blocks in region: 24
Blocks in region: 95
Blocks in region: 27
Blocks in region: 7
Blocks in region: 93
Blocks in region: 3
Blocks in region: 26
Blocks in region: 27
Blocks in region: 92
Blocks in region: 22
Blocks in region: 56
Blocks in region: 107
Blocks in region: 76
Blocks in region: 93
Blocks in region: 105
Blocks in region: 59
Blocks in region: 14
Blocks in region: 58
Blocks in region: 8
Blocks in region: 56
Blocks in region: 72
Blocks in region: 66
Blocks in region: 60
Blocks in region: 103
Blocks in region: 74
Blocks in region: 107
Blocks in region: 102
Blocks in region: 102
Blocks in region: 50
Blocks in region: 79
Blocks in region: 99
Blocks in region: 39
Blocks in region: 9
Blocks in region: 63
Blocks in region: 93
Blocks in region: 3
Blocks in region: 66
Blocks in region: 90
Blocks in region: 54
Blocks in region: 108
Blocks in region: 6
Blocks in region: 105
Blocks in region: 121
Blocks in region: 72
Blocks in region: 10
Blocks in region: 96
Blocks in region: 34
Blocks in region: 20
Blocks in region: 94
Blocks in region: 27
Blocks in region: 92
Blocks in region: 104
Blocks in region: 101
Blocks in region: 91
Blocks in region: 98
Blocks in region: 37
Blocks in region: 11
Blocks in region: 63
Blocks in region: 32
Blocks in region: 99
Blocks in region: 73
Blocks in region: 2
Blocks in region: 34
Blocks in region: 35
Blocks in region: 106
Blocks in region: 113
Blocks in region: 118
Blocks in region: 124
Blocks in region: 39
Blocks in region: 106
Blocks in region: 53
Blocks in region: 12
Blocks in region: 108
Blocks in region: 119
Blocks in region: 49
Blocks in region: 105
Blocks in region: 52
Blocks in region: 73
Blocks in region: 78
Blocks in region: 109
Blocks in region: 13
Blocks in region: 46
Blocks in region: 6
Blocks in region: 51
Blocks in region: 119
Blocks in region: 84
Blocks in region: 55
Blocks in region: 79
Blocks in region: 121
Blocks in region: 94
Blocks in region: 6
Blocks in region: 56
Blocks in region: 23
Blocks in region: 14
Blocks in region: 103
Blocks in region: 61
Blocks in region: 74
Blocks in region: 90
Blocks in region: 10
Blocks in region: 11
Blocks in region: 75
Blocks in region: 111
Blocks in region: 105
Blocks in region: 73
Blocks in region: 16
Blocks in region: 102
Blocks in region: 44
Blocks in region: 15
Blocks in region: 65
Blocks in region: 107
Blocks in region: 21
Blocks in region: 67
Blocks in region: 93
Blocks in region: 23
Blocks in region: 22
Blocks in region: 92
Blocks in region: 16
Blocks in region: 0
Blocks in region: 30
Blocks in region: 77
Blocks in region: 61
Blocks in region: 57
Blocks in region: 36
Blocks in region: 116
Blocks in region: 71
Blocks in region: 61
Blocks in region: 37
Blocks in region: 89
Blocks in region: 106
Blocks in region: 17
Blocks in region: 97
Blocks in region: 49
Blocks in region: 38
Blocks in region: 95
Blocks in region: 30
Blocks in region: 49
Blocks in region: 41
Blocks in region: 39
Blocks in region: 116
Blocks in region: 124
Blocks in region: 82
Blocks in region: 125
Blocks in region: 40
Blocks in region: 90
Blocks in region: 83
Blocks in region: 0
Blocks in region: 18
Blocks in region: 62
Blocks in region: 73
Blocks in region: 48
Blocks in region: 64
Blocks in region: 87
Blocks in region: 100
Blocks in region: 83
Blocks in region: 53
Blocks in region: 35
Blocks in region: 36
Blocks in region: 84
Blocks in region: 19
Blocks in region: 126
Blocks in region: 61
Blocks in region: 62
Blocks in region: 80
Blocks in region: 101
Blocks in region: 81
Blocks in region: 124
Blocks in region: 56
Blocks in region: 9
Blocks in region: 100
Blocks in region: 91
Blocks in region: 124
Blocks in region: 76
Blocks in region: 20
Blocks in region: 123
Blocks in region: 21
Blocks in region: 123
Blocks in region: 110
Blocks in region: 127
Blocks in region: 83
Blocks in region: 3
Blocks in region: 115
Blocks in region: 1
Blocks in region: 21
Blocks in region: 55
Blocks in region: 119
Blocks in region: 117
Blocks in region: 118
Blocks in region: 122
Blocks in region: 73
Blocks in region: 74
Blocks in region: 120
Blocks in region: 43
Blocks in region: 2
Blocks in region: 87
Blocks in region: 8
Blocks in region: 44
Blocks in region: 22
Blocks in region: 104
Blocks in region: 67
Blocks in region: 8
Blocks in region: 101
Blocks in region: 101
Blocks in region: 43
Blocks in region: 87
Blocks in region: 59
Blocks in region: 36
Blocks in region: 37
Blocks in region: 10
Blocks in region: 85
Blocks in region: 34
Blocks in region: 24
Blocks in region: 85
Blocks in region: 6
Blocks in region: 23
Blocks in region: 42
Blocks in region: 93
Blocks in region: 92
Blocks in region: 89
Blocks in region: 30
Blocks in region: 111
Blocks in region: 62
Blocks in region: 82
Blocks in region: 24
Blocks in region: 120
Blocks in region: 121
Blocks in region: 122
Blocks in region: 27
Blocks in region: 123
Blocks in region: 64
Blocks in region: 99
Blocks in region: 25
Blocks in region: 91
Blocks in region: 86
Blocks in region: 25
Blocks in region: 50
Blocks in region: 58
Blocks in region: 74
Blocks in region: 117
Blocks in region: 127
Blocks in region: 100
Blocks in region: 86
Blocks in region: 84
Blocks in region: 26
Blocks in region: 1
Blocks in region: 27
Blocks in region: 28
Blocks in region: 29
Blocks in region: 30
Blocks in region: 85
Blocks in region: 106
Blocks in region: 107
Blocks in region: 16
Blocks in region: 17
Blocks in region: 92
Blocks in region: 58
Blocks in region: 59
Blocks in region: 72
Blocks in region: 60
Blocks in region: 18
Blocks in region: 12
Blocks in region: 117
Blocks in region: 118
Blocks in region: 119
Blocks in region: 29
Blocks in region: 30
Blocks in region: 44
Blocks in region: 19
Blocks in region: 20
Blocks in region: 21
Blocks in region: 73
Blocks in region: 71
Blocks in region: 72
Blocks in region: 115
Blocks in region: 116
Blocks in region: 68
Blocks in region: 54
Blocks in region: 55
Blocks in region: 56
Blocks in region: 0
Blocks in region: 108
Blocks in region: 78
Blocks in region: 12
Blocks in region: 85
Blocks in region: 127
Blocks in region: 18
Blocks in region: 107
Blocks in region: 106
Blocks in region: 113
Blocks in region: 83
Blocks in region: 1
Blocks in region: 114
Blocks in region: 19
Blocks in region: 20
Blocks in region: 21
Blocks in region: 65
Blocks in region: 25
Blocks in region: 26
Blocks in region: 27
Blocks in region: 28
Blocks in region: 29
Blocks in region: 30
Blocks in region: 26
Blocks in region: 27
Blocks in region: 32
Blocks in region: 66
Blocks in region: 67
Blocks in region: 55
Blocks in region: 97
Blocks in region: 98
Blocks in region: 90
Blocks in region: 12
Blocks in region: 65
Blocks in region: 89
Blocks in region: 85
Blocks in region: 3
Blocks in region: 110
Blocks in region: 97
Blocks in region: 100
Blocks in region: 18
Blocks in region: 113
Blocks in region: 94
Blocks in region: 95
Blocks in region: 96
Blocks in region: 90
Blocks in region: 92
Blocks in region: 22
Blocks in region: 23
Blocks in region: 27
Blocks in region: 2
Blocks in region: 28
Blocks in region: 76
Blocks in region: 24
Blocks in region: 75
Blocks in region: 124
Blocks in region: 25
Blocks in region: 26
Blocks in region: 14
Blocks in region: 18
Blocks in region: 63
Blocks in region: 19
Blocks in region: 20
Blocks in region: 21
Blocks in region: 15
Blocks in region: 69
Blocks in region: 70
Blocks in region: 91
Blocks in region: 11
Blocks in region: 21
Blocks in region: 93
Blocks in region: 24
Blocks in region: 25
Blocks in region: 22
Blocks in region: 55
Blocks in region: 56
Blocks in region: 41
Blocks in region: 42
Blocks in region: 43
Blocks in region: 44
Blocks in region: 46
Blocks in region: 80
Blocks in region: 82
Blocks in region: 83
Blocks in region: 84
Blocks in region: 85
Blocks in region: 45
Blocks in region: 29
Blocks in region: 33
Blocks in region: 30
Blocks in region: 10
Blocks in region: 2
Blocks in region: 3
Blocks in region: 93
Blocks in region: 65
Blocks in region: 4
Blocks in region: 5
Blocks in region: 8
Blocks in region: 6
Blocks in region: 81
Blocks in region: 7
Blocks in region: 11
Blocks in region: 31
Blocks in region: 36
Blocks in region: 37
Blocks in region: 27
Blocks in region: 26
Blocks in region: 73
Blocks in region: 71
Blocks in region: 72
Blocks in region: 32
Blocks in region: 28
Blocks in region: 30
Blocks in region: 23
Blocks in region: 13
Blocks in region: 70
Blocks in region: 100
Blocks in region: 22
Blocks in region: 23
Blocks in region: 58
Blocks in region: 68
Blocks in region: 30
Blocks in region: 29
Blocks in region: 8
Blocks in region: 122
Blocks in region: 79
Blocks in region: 80
Blocks in region: 85
Blocks in region: 86
Blocks in region: 123
Blocks in region: 81
Blocks in region: 30
Blocks in region: 30
Blocks in region: 31
Blocks in region: 84
Blocks in region: 32
Blocks in region: 31
Blocks in region: 38
Blocks in region: 82
Blocks in region: 87
Blocks in region: 98
Blocks in region: 118
Blocks in region: 99
Blocks in region: 88
Blocks in region: 91
Blocks in region: 84
Blocks in region: 108
Blocks in region: 109
Blocks in region: 110
Blocks in region: 90
Blocks in region: 121
Blocks in region: 126
Blocks in region: 122
Blocks in region: 29
Blocks in region: 90
Blocks in region: 17
Blocks in region: 99
Blocks in region: 105
Blocks in region: 91
Blocks in region: 58
Blocks in region: 79
Blocks in region: 80
Blocks in region: 81
Blocks in region: 29
Blocks in region: 82
Blocks in region: 83
Blocks in region: 86
Blocks in region: 98
Blocks in region: 99
Blocks in region: 87
Blocks in region: 88
Blocks in region: 91
Blocks in region: 92
Blocks in region: 89
Blocks in region: 90
Blocks in region: 96
Blocks in region: 97
Blocks in region: 84
Blocks in region: 119
Blocks in region: 89
Blocks in region: 31
Blocks in region: 11
Blocks in region: 96
Blocks in region: 125
Blocks in region: 79
Blocks in region: 24
Blocks in region: 119
Blocks in region: 19
Blocks in region: 120
Blocks in region: 58
Blocks in region: 96
Blocks in region: 97
Blocks in region: 98
Blocks in region: 6
Blocks in region: 7
Blocks in region: 8
Blocks in region: 95
Blocks in region: 96
Blocks in region: 97
Blocks in region: 39
Blocks in region: 98
Blocks in region: 101
Blocks in region: 10
Blocks in region: 92
Blocks in region: 11
Blocks in region: 94
Blocks in region: 12
Blocks in region: 9
Blocks in region: 7
Blocks in region: 8
Blocks in region: 89
Blocks in region: 10
Blocks in region: 93
Blocks in region: 94
Blocks in region: 100
Blocks in region: 21
Blocks in region: 22
Blocks in region: 70
Blocks in region: 45
Blocks in region: 116
Blocks in region: 71
Blocks in region: 72
Blocks in region: 73
Blocks in region: 34
Blocks in region: 6
Blocks in region: 11
Blocks in region: 98
Blocks in region: 5
Blocks in region: 99
Blocks in region: 104
Blocks in region: 83
Blocks in region: 88
Blocks in region: 11
Blocks in region: 12
Blocks in region: 33
Blocks in region: 31
Blocks in region: 10
Blocks in region: 11
Blocks in region: 12
Blocks in region: 6
Blocks in region: 32
Blocks in region: 4
Blocks in region: 5
Blocks in region: 3
Blocks in region: 2
Blocks in region: 1
Blocks in region: 63
Blocks in region: 0
Blocks in region: 62
Blocks in region: 61
Blocks in region: 112
Blocks in region: 113
Blocks in region: 114
Blocks in region: 33
Blocks in region: 115
Blocks in region: 112
Blocks in region: 113
Blocks in region: 115
Blocks in region: 13
Blocks in region: 14
Blocks in region: 107
Blocks in region: 16
Blocks in region: 15
Blocks in region: 58
Blocks in region: 59
Blocks in region: 60
Blocks in region: 61
Blocks in region: 62
Blocks in region: 107
Blocks in region: 63
Blocks in region: 64
Blocks in region: 65
Blocks in region: 66
Blocks in region: 67
Blocks in region: 108
Blocks in region: 68
Blocks in region: 108
Blocks in region: 69
Blocks in region: 70
Blocks in region: 71
Blocks in region: 72
Blocks in region: 73
Blocks in region: 74
Blocks in region: 109
Blocks in region: 75
Blocks in region: 76
Blocks in region: 77
Blocks in region: 78
Blocks in region: 79
Blocks in region: 80
Blocks in region: 81
Blocks in region: 82
Blocks in region: 84
Blocks in region: 85
Blocks in region: 86
Blocks in region: 111
Blocks in region: 87
Blocks in region: 88
Blocks in region: 89
Blocks in region: 90
Blocks in region: 110
Blocks in region: 91
Blocks in region: 92
Blocks in region: 112
Blocks in region: 93
Blocks in region: 94
Blocks in region: 95
Blocks in region: 96
Blocks in region: 97
Blocks in region: 98
Blocks in region: 113
Blocks in region: 99
Blocks in region: 100
Blocks in region: 101
Blocks in region: 102
Blocks in region: 103
Blocks in region: 104
Blocks in region: 114
Blocks in region: 111
Blocks in region: 105
Blocks in region: 106
Blocks in region: 107
Blocks in region: 108
Blocks in region: 109
Blocks in region: 110
Blocks in region: 115
Blocks in region: 111
Blocks in region: 112
Blocks in region: 113
Blocks in region: 114
Blocks in region: 115
Blocks in region: 116
Blocks in region: 116
Blocks in region: 117
Blocks in region: 118
Blocks in region: 119
Blocks in region: 120
Blocks in region: 121
Blocks in region: 122
Blocks in region: 123
Blocks in region: 124
Blocks in region: 126
Blocks in region: 127
Blocks in region: 1
Blocks in region: 3
Blocks in region: 4
Blocks in region: 5
Blocks in region: 7
Blocks in region: 8
Blocks in region: 9
Blocks in region: 10
Blocks in region: 114
Blocks in region: 11
Blocks in region: 12
Blocks in region: 120
Blocks in region: 13
Blocks in region: 14
Blocks in region: 15
Blocks in region: 16
Blocks in region: 17
Blocks in region: 18
Blocks in region: 121
Blocks in region: 19
Blocks in region: 20
Blocks in region: 21
Blocks in region: 22
Blocks in region: 23
Blocks in region: 24
Blocks in region: 25
Blocks in region: 29
Blocks in region: 30
Blocks in region: 31
Blocks in region: 33
Blocks in region: 34
Blocks in region: 35
Blocks in region: 36
Blocks in region: 37
Blocks in region: 38
Blocks in region: 39
Blocks in region: 40
Blocks in region: 42
Blocks in region: 125
Blocks in region: 43
Blocks in region: 44
Blocks in region: 45
Blocks in region: 46
Blocks in region: 47
Blocks in region: 48
Blocks in region: 126
Blocks in region: 49
Blocks in region: 50
Blocks in region: 51
Blocks in region: 52
Blocks in region: 53
Blocks in region: 54
Blocks in region: 55
Blocks in region: 56
Blocks in region: 57
Blocks in region: 59
Blocks in region: 60
Blocks in region: 64
Blocks in region: 61
Blocks in region: 62
Blocks in region: 63
Blocks in region: 64
Blocks in region: 65
Blocks in region: 66
Blocks in region: 65
Blocks in region: 67
Blocks in region: 68
Blocks in region: 69
Blocks in region: 70
Blocks in region: 71
Blocks in region: 72
Blocks in region: 73
Blocks in region: 75
Blocks in region: 119
Blocks in region: 76
Blocks in region: 77
Blocks in region: 78
Blocks in region: 67
Blocks in region: 79
Blocks in region: 80
Blocks in region: 81
Blocks in region: 82
Blocks in region: 83
Blocks in region: 84
Blocks in region: 68
Blocks in region: 85
Blocks in region: 86
Blocks in region: 87
Blocks in region: 88
Blocks in region: 120
Blocks in region: 89
Blocks in region: 90
Blocks in region: 69
Blocks in region: 91
Blocks in region: 92
Blocks in region: 93
Blocks in region: 94
Blocks in region: 95
Blocks in region: 96
Blocks in region: 70
Blocks in region: 97
Blocks in region: 98
Blocks in region: 99
Blocks in region: 100
Blocks in region: 101
Blocks in region: 102
Blocks in region: 71
Blocks in region: 103
Blocks in region: 104
Blocks in region: 105
Blocks in region: 106
Blocks in region: 107
Blocks in region: 109
Blocks in region: 111
Blocks in region: 112
Blocks in region: 113
Blocks in region: 114
Blocks in region: 115
Blocks in region: 116
Blocks in region: 117
Blocks in region: 118
Blocks in region: 121
Blocks in region: 122
Blocks in region: 123
Blocks in region: 123
Blocks in region: 124
Blocks in region: 125
Blocks in region: 126
Blocks in region: 75
Blocks in region: 127
Blocks in region: 0
Blocks in region: 1
Blocks in region: 2
Blocks in region: 3
Blocks in region: 4
Blocks in region: 5
Blocks in region: 6
Blocks in region: 7
Blocks in region: 8
Blocks in region: 10
Blocks in region: 77
Blocks in region: 11
Blocks in region: 12
Blocks in region: 13
Blocks in region: 14
Blocks in region: 15
Blocks in region: 16
Blocks in region: 78
Blocks in region: 17
Blocks in region: 18
Blocks in region: 19
Blocks in region: 20
Blocks in region: 21
Blocks in region: 22
Blocks in region: 23
Blocks in region: 25
Blocks in region: 26
Blocks in region: 27
Blocks in region: 28
Blocks in region: 80
Blocks in region: 29
Blocks in region: 30
Blocks in region: 126
Blocks in region: 31
Blocks in region: 32
Blocks in region: 33
Blocks in region: 34
Blocks in region: 81
Blocks in region: 35
Blocks in region: 36
Blocks in region: 37
Blocks in region: 38
Blocks in region: 39
Blocks in region: 40
Blocks in region: 82
Blocks in region: 41
Blocks in region: 42
Blocks in region: 43
Blocks in region: 44
Blocks in region: 45
Blocks in region: 46
Blocks in region: 83
Blocks in region: 47
Blocks in region: 48
Blocks in region: 49
Blocks in region: 50
Blocks in region: 51
Blocks in region: 52
Blocks in region: 53
Blocks in region: 55
Blocks in region: 57
Blocks in region: 58
Blocks in region: 85
Blocks in region: 59
Blocks in region: 60
Blocks in region: 61
Blocks in region: 62
Blocks in region: 63
Blocks in region: 64
Blocks in region: 86
Blocks in region: 65
Blocks in region: 66
Blocks in region: 67
Blocks in region: 68
Blocks in region: 69
Blocks in region: 70
Blocks in region: 71
Blocks in region: 72
Blocks in region: 74
Blocks in region: 75
Blocks in region: 76
Blocks in region: 88
Blocks in region: 77
Blocks in region: 78
Blocks in region: 79
Blocks in region: 80
Blocks in region: 81
Blocks in region: 82
Blocks in region: 83
Blocks in region: 84
Blocks in region: 86
Blocks in region: 87
Blocks in region: 88
Blocks in region: 89
Blocks in region: 90
Blocks in region: 91
Blocks in region: 92
Blocks in region: 94
Blocks in region: 95
Blocks in region: 96
Blocks in region: 97
Blocks in region: 98
Blocks in region: 100
Blocks in region: 92
Blocks in region: 101
Blocks in region: 102
Blocks in region: 103
Blocks in region: 104
Blocks in region: 105
Blocks in region: 106
Blocks in region: 108
Blocks in region: 109
Blocks in region: 110
Blocks in region: 111
Blocks in region: 112
Blocks in region: 94
Blocks in region: 113
Blocks in region: 114
Blocks in region: 115
Blocks in region: 116
Blocks in region: 68
Blocks in region: 117
Blocks in region: 118
Blocks in region: 95
Blocks in region: 119
Blocks in region: 120
Blocks in region: 121
Blocks in region: 122
Blocks in region: 123
Blocks in region: 124
Blocks in region: 96
Blocks in region: 125
Blocks in region: 126
Blocks in region: 127
Blocks in region: 0
Blocks in region: 69
Blocks in region: 1
Blocks in region: 2
Blocks in region: 97
Blocks in region: 3
Blocks in region: 4
Blocks in region: 5
Blocks in region: 6
Blocks in region: 7
Blocks in region: 8
Blocks in region: 98
Blocks in region: 9
Blocks in region: 10
Blocks in region: 11
Blocks in region: 12
Blocks in region: 13
Blocks in region: 14
Blocks in region: 99
Blocks in region: 15
Blocks in region: 16
Blocks in region: 17
Blocks in region: 18
Blocks in region: 19
Blocks in region: 20
Blocks in region: 21
Blocks in region: 24
Blocks in region: 25
Blocks in region: 26
Blocks in region: 101
Blocks in region: 27
Blocks in region: 28
Blocks in region: 71
Blocks in region: 29
Blocks in region: 30
Blocks in region: 31
Blocks in region: 32
Blocks in region: 102
Blocks in region: 33
Blocks in region: 34
Blocks in region: 35
Blocks in region: 36
Blocks in region: 37
Blocks in region: 38
Blocks in region: 103
Blocks in region: 39
Blocks in region: 72
Blocks in region: 40
Blocks in region: 41
Blocks in region: 42
Blocks in region: 43
Blocks in region: 44
Blocks in region: 104
Blocks in region: 45
Blocks in region: 46
Blocks in region: 47
Blocks in region: 48
Blocks in region: 49
Blocks in region: 50
Blocks in region: 105
Blocks in region: 51
Blocks in region: 52
Blocks in region: 53
Blocks in region: 54
Blocks in region: 55
Blocks in region: 56
Blocks in region: 57
Blocks in region: 58
Blocks in region: 59
Blocks in region: 60
Blocks in region: 62
Blocks in region: 64
Blocks in region: 65
Blocks in region: 67
Blocks in region: 68
Blocks in region: 108
Blocks in region: 69
Blocks in region: 70
Blocks in region: 71
Blocks in region: 72
Blocks in region: 73
Blocks in region: 74
Blocks in region: 75
Blocks in region: 76
Blocks in region: 77
Blocks in region: 79
Blocks in region: 80
Blocks in region: 110
Blocks in region: 81
Blocks in region: 82
Blocks in region: 83
Blocks in region: 84
Blocks in region: 85
Blocks in region: 86
Blocks in region: 87
Blocks in region: 88
Blocks in region: 89
Blocks in region: 91
Blocks in region: 92
Blocks in region: 112
Blocks in region: 76
Blocks in region: 93
Blocks in region: 94
Blocks in region: 95
Blocks in region: 96
Blocks in region: 97
Blocks in region: 98
Blocks in region: 113
Blocks in region: 99
Blocks in region: 100
Blocks in region: 101
Blocks in region: 102
Blocks in region: 103
Blocks in region: 104
Blocks in region: 114
Blocks in region: 105
Blocks in region: 106
Blocks in region: 107
Blocks in region: 108
Blocks in region: 109
Blocks in region: 110
Blocks in region: 111
Blocks in region: 112
Blocks in region: 113
Blocks in region: 115
Blocks in region: 116
Blocks in region: 118
Blocks in region: 119
Blocks in region: 120
Blocks in region: 121
Blocks in region: 122
Blocks in region: 117
Blocks in region: 123
Blocks in region: 124
Blocks in region: 125
Blocks in region: 126
Blocks in region: 127
Blocks in region: 64
Blocks in region: 118
Blocks in region: 65
Blocks in region: 66
Blocks in region: 67
Blocks in region: 68
Blocks in region: 69
Blocks in region: 70
Blocks in region: 71
Blocks in region: 73
Blocks in region: 74
Blocks in region: 75
Blocks in region: 76
Blocks in region: 120
Blocks in region: 77
Blocks in region: 78
Blocks in region: 79
Blocks in region: 80
Blocks in region: 81
Blocks in region: 82
Blocks in region: 83
Blocks in region: 85
Blocks in region: 86
Blocks in region: 87
Blocks in region: 88
Blocks in region: 93
Blocks in region: 94
Blocks in region: 123
Blocks in region: 95
Blocks in region: 96
Blocks in region: 97
Blocks in region: 98
Blocks in region: 99
Blocks in region: 100
Blocks in region: 102
Blocks in region: 103
Blocks in region: 104
Blocks in region: 108
Blocks in region: 109
Blocks in region: 110
Blocks in region: 112
Blocks in region: 126
Blocks in region: 113
Blocks in region: 114
Blocks in region: 115
Blocks in region: 116
Blocks in region: 117
Blocks in region: 118
Blocks in region: 119
Blocks in region: 120
Blocks in region: 121
Blocks in region: 122
Blocks in region: 124
Blocks in region: 127
Blocks in region: 0
Blocks in region: 1
Blocks in region: 2
Blocks in region: 4
Blocks in region: 5
Blocks in region: 6
Blocks in region: 84
Blocks in region: 7
Blocks in region: 8
Blocks in region: 2
Blocks in region: 9
Blocks in region: 10
Blocks in region: 11
Blocks in region: 12
Blocks in region: 13
Blocks in region: 14
Blocks in region: 3
Blocks in region: 15
Blocks in region: 16
Blocks in region: 17
Blocks in region: 18
Blocks in region: 19
Blocks in region: 20
Blocks in region: 4
Blocks in region: 21
Blocks in region: 22
Blocks in region: 23
Blocks in region: 24
Blocks in region: 25
Blocks in region: 26
Blocks in region: 5
Blocks in region: 27
Blocks in region: 28
Blocks in region: 29
Blocks in region: 30
Blocks in region: 31
Blocks in region: 32
Blocks in region: 33
Blocks in region: 35
Blocks in region: 36
Blocks in region: 37
Blocks in region: 38
Blocks in region: 39
Blocks in region: 42
Blocks in region: 45
Blocks in region: 46
Blocks in region: 47
Blocks in region: 48
Blocks in region: 49
Blocks in region: 50
Blocks in region: 9
Blocks in region: 51
Blocks in region: 52
Blocks in region: 53
Blocks in region: 54
Blocks in region: 55
Blocks in region: 56
Blocks in region: 57
Blocks in region: 58
Blocks in region: 60
Blocks in region: 61
Blocks in region: 62
Blocks in region: 63
Blocks in region: 64
Blocks in region: 67
Blocks in region: 68
Blocks in region: 12
Blocks in region: 69
Blocks in region: 70
Blocks in region: 71
Blocks in region: 89
Blocks in region: 72
Blocks in region: 73
Blocks in region: 74
Blocks in region: 13
Blocks in region: 75
Blocks in region: 76
Blocks in region: 77
Blocks in region: 78
Blocks in region: 79
Blocks in region: 80
Blocks in region: 14
Blocks in region: 81
Blocks in region: 82
Blocks in region: 83
Blocks in region: 84
Blocks in region: 85
Blocks in region: 86
Blocks in region: 15
Blocks in region: 87
Blocks in region: 88
Blocks in region: 89
Blocks in region: 90
Blocks in region: 91
Blocks in region: 92
Blocks in region: 16
Blocks in region: 93
Blocks in region: 94
Blocks in region: 95
Blocks in region: 96
Blocks in region: 97
Blocks in region: 98
Blocks in region: 100
Blocks in region: 101
Blocks in region: 102
Blocks in region: 103
Blocks in region: 104
Blocks in region: 18
Blocks in region: 105
Blocks in region: 106
Blocks in region: 107
Blocks in region: 91
Blocks in region: 108
Blocks in region: 109
Blocks in region: 110
Blocks in region: 19
Blocks in region: 111
Blocks in region: 112
Blocks in region: 113
Blocks in region: 114
Blocks in region: 115
Blocks in region: 116
Blocks in region: 20
Blocks in region: 117
Blocks in region: 118
Blocks in region: 119
Blocks in region: 120
Blocks in region: 121
Blocks in region: 122
Blocks in region: 21
Blocks in region: 123
Blocks in region: 124
Blocks in region: 125
Blocks in region: 126
Blocks in region: 127
Blocks in region: 0
Blocks in region: 1
Blocks in region: 2
Blocks in region: 4
Blocks in region: 5
Blocks in region: 7
Blocks in region: 8
Blocks in region: 9
Blocks in region: 10
Blocks in region: 11
Blocks in region: 12
Blocks in region: 24
Blocks in region: 13
Blocks in region: 14
Blocks in region: 15
Blocks in region: 16
Blocks in region: 17
Blocks in region: 18
Blocks in region: 19
Blocks in region: 21
Blocks in region: 22
Blocks in region: 24
Blocks in region: 26
Blocks in region: 25
Blocks in region: 26
Blocks in region: 27
Blocks in region: 28
Blocks in region: 29
Blocks in region: 30
Blocks in region: 31
Blocks in region: 32
Blocks in region: 33
Blocks in region: 35
Blocks in region: 36
Blocks in region: 28
Blocks in region: 37
Blocks in region: 38
Blocks in region: 39
Blocks in region: 40
Blocks in region: 41
Blocks in region: 42
Blocks in region: 29
Blocks in region: 43
Blocks in region: 44
Blocks in region: 45
Blocks in region: 46
Blocks in region: 47
Blocks in region: 30
Blocks in region: 48
Blocks in region: 50
Blocks in region: 51
Blocks in region: 96
Blocks in region: 52
Blocks in region: 53
Blocks in region: 54
Blocks in region: 31
Blocks in region: 55
Blocks in region: 56
Blocks in region: 57
Blocks in region: 58
Blocks in region: 59
Blocks in region: 60
Blocks in region: 32
Blocks in region: 61
Blocks in region: 97
Blocks in region: 62
Blocks in region: 63
Blocks in region: 64
Blocks in region: 65
Blocks in region: 66
Blocks in region: 33
Blocks in region: 67
Blocks in region: 68
Blocks in region: 69
Blocks in region: 70
Blocks in region: 71
Blocks in region: 72
Blocks in region: 34
Blocks in region: 73
Blocks in region: 74
Blocks in region: 75
Blocks in region: 76
Blocks in region: 77
Blocks in region: 78
Blocks in region: 79
Blocks in region: 80
Blocks in region: 81
Blocks in region: 82
Blocks in region: 84
Blocks in region: 85
Blocks in region: 86
Blocks in region: 87
Blocks in region: 88
Blocks in region: 89
Blocks in region: 90
Blocks in region: 92
Blocks in region: 93
Blocks in region: 94
Blocks in region: 95
Blocks in region: 96
Blocks in region: 38
Blocks in region: 97
Blocks in region: 98
Blocks in region: 99
Blocks in region: 100
Blocks in region: 101
Blocks in region: 104
Blocks in region: 105
Blocks in region: 106
Blocks in region: 107
Blocks in region: 108
Blocks in region: 40
Blocks in region: 109
Blocks in region: 110
Blocks in region: 111
Blocks in region: 112
Blocks in region: 113
Blocks in region: 114
Blocks in region: 41
Blocks in region: 115
Blocks in region: 116
Blocks in region: 117
Blocks in region: 118
Blocks in region: 119
Blocks in region: 120
Blocks in region: 122
Blocks in region: 123
Blocks in region: 124
Blocks in region: 125
Blocks in region: 126
Blocks in region: 127
Blocks in region: 64
Blocks in region: 65
Blocks in region: 66
Blocks in region: 68
Blocks in region: 69
Blocks in region: 70
Blocks in region: 71
Blocks in region: 72
Blocks in region: 74
Blocks in region: 45
Blocks in region: 75
Blocks in region: 76
Blocks in region: 77
Blocks in region: 78
Blocks in region: 79
Blocks in region: 81
Blocks in region: 82
Blocks in region: 83
Blocks in region: 84
Blocks in region: 103
Blocks in region: 85
Blocks in region: 86
Blocks in region: 47
Blocks in region: 87
Blocks in region: 88
Blocks in region: 89
Blocks in region: 90
Blocks in region: 91
Blocks in region: 92
Blocks in region: 48
Blocks in region: 93
Blocks in region: 94
Blocks in region: 95
Blocks in region: 96
Blocks in region: 97
Blocks in region: 98
Blocks in region: 99
Blocks in region: 100
Blocks in region: 101
Blocks in region: 102
Blocks in region: 103
Blocks in region: 104
Blocks in region: 105
Blocks in region: 106
Blocks in region: 107
Blocks in region: 108
Blocks in region: 109
Blocks in region: 110
Blocks in region: 51
Blocks in region: 111
Blocks in region: 112
Blocks in region: 113
Blocks in region: 114
Blocks in region: 115
Blocks in region: 116
Blocks in region: 117
Blocks in region: 118
Blocks in region: 120
Blocks in region: 121
Blocks in region: 122
Blocks in region: 53
Blocks in region: 125
Blocks in region: 126
Blocks in region: 127
Blocks in region: 17
Blocks in region: 21
Blocks in region: 18
Blocks in region: 89
Blocks in region: 84
Blocks in region: 85
Blocks in region: 87
Blocks in region: 102
Blocks in region: 100
Blocks in region: 110
Blocks in region: 111
Blocks in region: 95
Blocks in region: 113
Blocks in region: 115
Blocks in region: 116
Blocks in region: 12
Blocks in region: 42
Blocks in region: 46
Blocks in region: 43
Blocks in region: 47
Blocks in region: 48
Blocks in region: 49
Blocks in region: 50
Blocks in region: 51
Blocks in region: 52
Blocks in region: 53
Blocks in region: 54
Blocks in region: 55
Blocks in region: 56
Blocks in region: 57
Blocks in region: 58
Blocks in region: 59
Blocks in region: 60
Blocks in region: 61
Blocks in region: 62
Blocks in region: 63
Blocks in region: 64
Blocks in region: 65
Blocks in region: 66
Blocks in region: 67
Blocks in region: 68
Blocks in region: 69
Blocks in region: 70
Blocks in region: 71
Blocks in region: 72
Blocks in region: 73
Blocks in region: 74
Blocks in region: 75
Blocks in region: 76
Blocks in region: 77
Blocks in region: 53
Blocks in region: 54
Blocks in region: 45
Blocks in region: 117
Blocks in region: 118
Blocks in region: 119
Blocks in region: 70
Blocks in region: 76
Blocks in region: 77
Blocks in region: 71
Blocks in region: 72
Blocks in region: 73
Blocks in region: 93
Blocks in region: 73
Blocks in region: 74
Blocks in region: 75
Blocks in region: 76
Blocks in region: 87
Blocks in region: 88
Blocks in region: 93
Blocks in region: 89
Blocks in region: 37
Blocks in region: 126
Blocks in region: 125
Blocks in region: 127
Blocks in region: 124
Blocks in region: 0
Blocks in region: 6
Blocks in region: 90
Blocks in region: 102
Blocks in region: 95
Blocks in region: 96
Blocks in region: 97
Blocks in region: 98
Blocks in region: 99
Blocks in region: 64
Blocks in region: 78
Blocks in region: 79
Blocks in region: 0
Blocks in region: 81
Blocks in region: 123
Blocks in region: 101
Blocks in region: 71
Blocks in region: 20
Blocks in region: 95
Blocks in region: 96
Blocks in region: 99
Blocks in region: 78
Blocks in region: 13
Blocks in region: 11
Blocks in region: 25
Blocks in region: 26
Blocks in region: 27
Blocks in region: 9
Blocks in region: 16
Blocks in region: 17
Blocks in region: 19
Blocks in region: 20
Blocks in region: 21
Blocks in region: 22
Blocks in region: 84
Blocks in region: 23
Blocks in region: 81
Blocks in region: 24
Blocks in region: 25
Blocks in region: 45
Blocks in region: 30
Blocks in region: 32
Blocks in region: 46
Blocks in region: 7
Blocks in region: 8
Blocks in region: 4
Blocks in region: 91
Blocks in region: 93
Blocks in region: 62
Blocks in region: 94
Blocks in region: 5
Blocks in region: 6
Blocks in region: 35
Blocks in region: 48
Blocks in region: 49
Blocks in region: 50
Blocks in region: 16
Blocks in region: 19
Blocks in region: 51
Blocks in region: 2
Blocks in region: 3
Blocks in region: 33
Blocks in region: 53
Blocks in region: 55
Blocks in region: 56
Blocks in region: 12
Blocks in region: 80
Blocks in region: 81
Blocks in region: 82
Blocks in region: 57
Blocks in region: 34
Blocks in region: 35
Blocks in region: 36
Blocks in region: 65
Blocks in region: 37
Blocks in region: 40
Blocks in region: 15
Blocks in region: 16
Blocks in region: 17
Blocks in region: 18
Blocks in region: 79
Blocks in region: 80
Blocks in region: 46
Blocks in region: 48
Blocks in region: 78
Number of elements: 9000, Number of cache blocks: 4, Number of iterations: 1
Blocks in region: 79
Blocks in region: 47
Blocks in region: 81
Blocks in region: 82
Blocks in region: 38
Blocks in region: 13
Blocks in region: 14
Blocks in region: 9
Blocks in region: 10
Blocks in region: 7
Blocks in region: 82
Blocks in region: 83
Blocks in region: 94
Blocks in region: 51
Blocks in region: 8
Blocks in region: 32
Blocks in region: 1
Blocks in region: 2
Blocks in region: 3
Blocks in region: 4
Blocks in region: 5
Blocks in region: 6
Blocks in region: 7
Blocks in region: 8
Blocks in region: 9
Blocks in region: 10
Blocks in region: 11
Blocks in region: 12
Blocks in region: 13
Blocks in region: 14
Blocks in region: 15
Blocks in region: 16
Blocks in region: 17
Blocks in region: 18
Blocks in region: 19
Blocks in region: 20
Blocks in region: 21
Blocks in region: 22
Blocks in region: 23
Blocks in region: 24
Blocks in region: 25
Blocks in region: 26
Blocks in region: 27
Blocks in region: 28
Blocks in region: 29
Blocks in region: 30
Blocks in region: 31
Blocks in region: 32
Blocks in region: 33
Blocks in region: 34
Blocks in region: 35
Blocks in region: 36
Blocks in region: 37
Blocks in region: 38
Blocks in region: 39
Blocks in region: 40
Blocks in region: 41
Blocks in region: 42
Blocks in region: 43
Blocks in region: 44
Blocks in region: 45
Blocks in region: 46
Blocks in region: 47
Blocks in region: 48
Blocks in region: 49
Blocks in region: 50
Blocks in region: 51
Blocks in region: 52
Blocks in region: 53
Blocks in region: 54
Blocks in region: 55
Blocks in region: 56
Blocks in region: 57
Blocks in region: 58
Blocks in region: 59
Blocks in region: 60
Blocks in region: 61
Blocks in region: 62
Blocks in region: 63
Blocks in region: 64
Blocks in region: 65
Blocks in region: 66
Blocks in region: 67
Blocks in region: 68
Blocks in region: 69
Blocks in region: 70
Blocks in region: 71
Blocks in region: 72
Blocks in region: 73
Blocks in region: 74
Blocks in region: 75
Blocks in region: 76
Blocks in region: 77
Blocks in region: 78
Blocks in region: 79
Blocks in region: 80
Blocks in region: 81
Blocks in region: 82
Blocks in region: 83
Blocks in region: 84
Blocks in region: 85
Blocks in region: 86
Blocks in region: 87
Blocks in region: 88
Blocks in region: 89
Blocks in region: 90
Blocks in region: 91
Blocks in region: 92
Blocks in region: 93
Blocks in region: 94
Blocks in region: 95
Blocks in region: 96
Blocks in region: 97
Blocks in region: 98
Blocks in region: 99
Blocks in region: 100
Blocks in region: 101
Blocks in region: 102
Blocks in region: 103
Blocks in region: 104
Blocks in region: 105
Blocks in region: 106
Blocks in region: 107
Blocks in region: 108
Blocks in region: 109
Blocks in region: 110
Blocks in region: 111
Blocks in region: 112
Blocks in region: 113
Blocks in region: 114
Blocks in region: 115
Blocks in region: 116
Blocks in region: 117
Blocks in region: 118
Blocks in region: 119
Blocks in region: 120
Blocks in region: 121
Blocks in region: 122
Blocks in region: 123
Blocks in region: 124
Blocks in region: 125
Blocks in region: 126
Blocks in region: 127
Blocks in region: 0
Blocks in region: 1
Blocks in region: 2
Blocks in region: 3
Blocks in region: 4
Blocks in region: 5
Blocks in region: 6
Blocks in region: 7
Blocks in region: 8
Blocks in region: 9
Blocks in region: 10
Blocks in region: 11
Blocks in region: 12
Blocks in region: 13
Blocks in region: 14
Blocks in region: 15
Blocks in region: 16
Blocks in region: 17
Blocks in region: 18
Blocks in region: 19
Blocks in region: 20
Blocks in region: 21
Blocks in region: 22
Blocks in region: 23
Blocks in region: 24
Blocks in region: 25
Blocks in region: 26
Blocks in region: 27
Blocks in region: 28
Blocks in region: 29
Blocks in region: 30
Blocks in region: 31
Blocks in region: 32
Blocks in region: 33
Blocks in region: 34
Blocks in region: 35
Blocks in region: 36
Blocks in region: 37
Blocks in region: 38
Blocks in region: 39
Blocks in region: 40
Blocks in region: 41
Blocks in region: 42
Blocks in region: 43
Blocks in region: 44
Blocks in region: 45
Blocks in region: 46
Blocks in region: 47
Blocks in region: 48
Blocks in region: 49
Blocks in region: 50
Blocks in region: 51
Blocks in region: 52
Blocks in region: 53
Blocks in region: 54
Blocks in region: 55
Blocks in region: 56
Blocks in region: 57
Blocks in region: 58
Blocks in region: 59
Blocks in region: 60
Blocks in region: 61
Blocks in region: 62
Blocks in region: 63
Blocks in region: 64
Blocks in region: 65
Blocks in region: 66
Blocks in region: 67
Blocks in region: 68
Blocks in region: 69
Blocks in region: 70
Blocks in region: 71
Blocks in region: 72
Blocks in region: 73
Blocks in region: 74
Blocks in region: 75
Blocks in region: 76
Blocks in region: 77
Blocks in region: 78
Blocks in region: 79
Blocks in region: 80
Blocks in region: 81
Blocks in region: 82
Blocks in region: 83
Blocks in region: 84
Blocks in region: 85
Blocks in region: 86
Blocks in region: 87
Blocks in region: 88
Blocks in region: 89
Blocks in region: 90
Blocks in region: 91
Blocks in region: 92
Blocks in region: 93
Blocks in region: 94
Blocks in region: 95
Blocks in region: 96
Blocks in region: 97
Blocks in region: 98
Blocks in region: 99
Blocks in region: 100
Blocks in region: 101
Blocks in region: 102
Blocks in region: 103
Blocks in region: 104
Blocks in region: 105
Blocks in region: 106
Blocks in region: 107
Blocks in region: 108
Blocks in region: 109
Blocks in region: 110
Blocks in region: 111
Blocks in region: 112
Blocks in region: 113
Blocks in region: 114
Blocks in region: 115
Blocks in region: 116
Blocks in region: 117
Blocks in region: 118
Blocks in region: 119
Blocks in region: 120
Blocks in region: 121
Blocks in region: 122
Blocks in region: 123
Blocks in region: 124
Blocks in region: 125
Blocks in region: 126
Blocks in region: 127
Blocks in region: 0
Blocks in region: 1
Blocks in region: 2
Blocks in region: 3
Blocks in region: 4
Blocks in region: 5
Blocks in region: 6
Blocks in region: 7
Blocks in region: 8
Blocks in region: 9
Blocks in region: 10
Blocks in region: 11
Blocks in region: 12
Blocks in region: 13
Blocks in region: 14
Blocks in region: 15
Blocks in region: 16
Blocks in region: 17
Blocks in region: 18
Blocks in region: 19
Blocks in region: 20
Blocks in region: 21
Blocks in region: 22
Blocks in region: 23
Blocks in region: 24
Blocks in region: 25
Blocks in region: 26
Blocks in region: 27
Blocks in region: 28
Blocks in region: 29
Blocks in region: 30
Blocks in region: 31
Blocks in region: 32
Blocks in region: 33
Blocks in region: 34
Blocks in region: 35
Blocks in region: 36
Blocks in region: 37
Blocks in region: 38
Blocks in region: 39
Blocks in region: 40
Blocks in region: 41
Blocks in region: 42
Blocks in region: 43
Blocks in region: 44
Blocks in region: 45
Blocks in region: 46
Blocks in region: 47
Blocks in region: 48
Blocks in region: 49
Blocks in region: 50
Blocks in region: 51
Blocks in region: 52
Blocks in region: 53
Blocks in region: 54
Blocks in region: 55
Blocks in region: 56
Blocks in region: 57
Blocks in region: 58
Blocks in region: 59
Blocks in region: 60
Blocks in region: 61
Blocks in region: 62
Blocks in region: 63
Blocks in region: 64
Blocks in region: 65
Blocks in region: 66
Blocks in region: 67
Blocks in region: 68
Blocks in region: 69
Blocks in region: 70
Blocks in region: 71
Blocks in region: 72
Blocks in region: 73
Blocks in region: 74
Blocks in region: 75
Blocks in region: 76
Blocks in region: 77
Blocks in region: 78
Blocks in region: 79
Blocks in region: 80
Blocks in region: 81
Blocks in region: 82
Blocks in region: 83
Blocks in region: 84
Blocks in region: 85
Blocks in region: 86
Blocks in region: 87
Blocks in region: 88
Blocks in region: 89
Blocks in region: 90
Blocks in region: 91
Blocks in region: 92
Blocks in region: 93
Blocks in region: 94
Blocks in region: 95
Blocks in region: 96
Blocks in region: 97
Blocks in region: 98
Blocks in region: 99
Blocks in region: 100
Blocks in region: 101
Blocks in region: 102
Blocks in region: 103
Blocks in region: 104
Blocks in region: 105
Blocks in region: 106
Blocks in region: 107
Blocks in region: 108
Blocks in region: 109
Blocks in region: 110
Blocks in region: 111
Blocks in region: 112
Blocks in region: 113
Blocks in region: 114
Blocks in region: 115
Blocks in region: 116
Blocks in region: 117
Blocks in region: 118
Blocks in region: 119
Blocks in region: 120
Blocks in region: 121
Blocks in region: 122
Blocks in region: 123
Blocks in region: 124
Blocks in region: 125
Blocks in region: 126
Blocks in region: 127
Blocks in region: 0
Blocks in region: 1
Blocks in region: 2
Blocks in region: 3
Blocks in region: 4
Blocks in region: 5
Blocks in region: 6
Blocks in region: 7
Blocks in region: 8
Blocks in region: 9
Blocks in region: 10
Blocks in region: 11
Blocks in region: 12
Blocks in region: 13
Blocks in region: 14
Blocks in region: 15
Blocks in region: 16
Blocks in region: 17
Blocks in region: 18
Blocks in region: 19
Blocks in region: 20
Blocks in region: 21
Blocks in region: 22
Blocks in region: 23
Blocks in region: 24
Blocks in region: 25
Blocks in region: 26
Blocks in region: 27
Blocks in region: 28
Blocks in region: 29
Blocks in region: 30
Blocks in region: 31
Blocks in region: 32
Blocks in region: 33
Blocks in region: 34
Blocks in region: 35
Blocks in region: 36
Blocks in region: 37
Blocks in region: 38
Blocks in region: 39
Blocks in region: 40
Blocks in region: 41
Blocks in region: 42
Blocks in region: 43
Blocks in region: 44
Blocks in region: 45
Blocks in region: 46
Blocks in region: 47
Blocks in region: 48
Blocks in region: 49
Blocks in region: 50
Blocks in region: 51
Blocks in region: 52
Blocks in region: 53
Blocks in region: 54
Blocks in region: 55
Blocks in region: 56
Blocks in region: 57
Blocks in region: 58
Blocks in region: 59
Blocks in region: 60
Blocks in region: 61
Blocks in region: 62
Blocks in region: 63
Blocks in region: 64
Blocks in region: 65
Blocks in region: 66
Blocks in region: 67
Blocks in region: 68
Blocks in region: 69
Blocks in region: 70
Blocks in region: 71
Blocks in region: 72
Blocks in region: 73
Blocks in region: 74
Blocks in region: 75
Blocks in region: 76
Blocks in region: 77
Blocks in region: 78
Blocks in region: 79
Blocks in region: 80
Blocks in region: 81
Blocks in region: 82
Blocks in region: 83
Blocks in region: 84
Blocks in region: 85
Blocks in region: 86
Blocks in region: 87
Blocks in region: 88
Blocks in region: 89
Blocks in region: 90
Blocks in region: 91
Blocks in region: 92
Blocks in region: 93
Blocks in region: 94
Blocks in region: 95
Blocks in region: 96
Blocks in region: 97
Blocks in region: 98
Blocks in region: 99
Blocks in region: 100
Blocks in region: 101
Blocks in region: 102
Blocks in region: 103
Blocks in region: 104
Blocks in region: 105
Blocks in region: 106
Blocks in region: 107
Blocks in region: 108
Blocks in region: 109
Blocks in region: 110
Blocks in region: 111
Blocks in region: 112
Blocks in region: 113
Blocks in region: 114
Blocks in region: 115
Blocks in region: 116
Blocks in region: 117
Blocks in region: 118
Blocks in region: 119
Blocks in region: 120
Blocks in region: 121
Blocks in region: 122
Blocks in region: 123
Blocks in region: 124
Blocks in region: 125
Blocks in region: 126
Blocks in region: 127
Blocks in region: 0
Blocks in region: 1
Blocks in region: 2
Blocks in region: 3
Blocks in region: 4
Blocks in region: 5
Blocks in region: 6
Blocks in region: 7
Blocks in region: 8
Blocks in region: 9
Blocks in region: 10
Blocks in region: 11
Blocks in region: 12
Blocks in region: 13
Blocks in region: 14
Blocks in region: 15
Blocks in region: 16
Blocks in region: 17
Blocks in region: 18
Blocks in region: 19
Blocks in region: 20
Blocks in region: 21
Blocks in region: 22
Blocks in region: 23
Blocks in region: 24
Blocks in region: 25
Blocks in region: 26
Blocks in region: 27
Blocks in region: 28
Blocks in region: 29
Blocks in region: 30
Blocks in region: 31
Blocks in region: 32
Blocks in region: 33
Blocks in region: 34
Blocks in region: 35
Blocks in region: 36
Blocks in region: 37
Blocks in region: 38
Blocks in region: 39
Blocks in region: 40
Blocks in region: 41
Blocks in region: 42
Blocks in region: 43
Blocks in region: 44
Blocks in region: 45
Blocks in region: 46
Blocks in region: 47
Blocks in region: 48
Blocks in region: 49
Blocks in region: 50
Blocks in region: 42
Packet address: 0000000000000000000000000000000000000000000000101100101010000000
Re-generated blocks in region: 37
Re-generated blocks in region: 42
Re-generated blocks in region: 46
Re-generated blocks in region: 56
Blocks in region: 46
Blocks in region: 28
Packet address: 0000000000000000000000000000000000000000000000111100011100000000
Re-generated blocks in region: 28
Re-generated blocks in region: 29
Re-generated blocks in region: 52
Re-generated blocks in region: 54
Re-generated blocks in region: 62
Re-generated blocks in region: 63
Blocks in region: 37
Blocks in region: 91
Packet address: 0000000000000000000000000000000000000000000000101011011011000000
Re-generated blocks in region: 82
Re-generated blocks in region: 91
Blocks in region: 35
Blocks in region: 44
Blocks in region: 35
Blocks in region: 36
Blocks in region: 82
Blocks in region: 51
Blocks in region: 52
Blocks in region: 53
Blocks in region: 3
Blocks in region: 4
Blocks in region: 54
Blocks in region: 49
Blocks in region: 50
Blocks in region: 55
Blocks in region: 37
Blocks in region: 34
Blocks in region: 75
Blocks in region: 61
Blocks in region: 43
Blocks in region: 44
Blocks in region: 45
Blocks in region: 33
Blocks in region: 35
Blocks in region: 45
Packet address: 0000000000000000000000000000000000000000000010010100101101000000
Re-generated blocks in region: 45
Blocks in region: 12
Sum: 4 
Blocks in region: 11
Blocks in region: 53
Blocks in region: 72
Blocks in region: 73
Blocks in region: 74
Blocks in region: 22
Blocks in region: 75
Blocks in region: 21
Blocks in region: 22
Blocks in region: 53
Blocks in region: 54
Blocks in region: 59
Blocks in region: 74
Blocks in region: 75
Blocks in region: 60
Blocks in region: 99
Blocks in region: 100
Blocks in region: 61
Blocks in region: 63
Blocks in region: 65
Blocks in region: 66
Blocks in region: 102
Blocks in region: 103
Blocks in region: 33
Blocks in region: 34
Blocks in region: 81
Blocks in region: 82
Blocks in region: 58
Blocks in region: 1
Blocks in region: 60
Blocks in region: 23
Blocks in region: 24
Blocks in region: 61
Blocks in region: 63
Blocks in region: 0
Blocks in region: 107
Blocks in region: 108
Blocks in region: 109
Blocks in region: 110
Blocks in region: 111
Blocks in region: 112
Blocks in region: 113
Blocks in region: 114
Blocks in region: 115
Blocks in region: 116
Blocks in region: 123
Blocks in region: 124
Blocks in region: 118
Blocks in region: 119
Blocks in region: 120
Blocks in region: 121
Blocks in region: 122
Blocks in region: 126
Blocks in region: 62
Blocks in region: 99
Packet address: 0000000000000000000000000000000000000000000000111111100011000000
Re-generated blocks in region: 22
Re-generated blocks in region: 99
Re-generated blocks in region: 100
Re-generated blocks in region: 122
Blocks in region: 76
Blocks in region: 64
Blocks in region: 65
Blocks in region: 73
Blocks in region: 74
Blocks in region: 93
Blocks in region: 67
Blocks in region: 68
Blocks in region: 69
Blocks in region: 70
Blocks in region: 85
Blocks in region: 72
Blocks in region: 36
Blocks in region: 77
Blocks in region: 79
Blocks in region: 80
Blocks in region: 78
Blocks in region: 17
Blocks in region: 37
Blocks in region: 14
Blocks in region: 15
Blocks in region: 39
Blocks in region: 38
Blocks in region: 81
Blocks in region: 82
Blocks in region: 30
Blocks in region: 31
Exiting @ tick 1066452000 because exiting with last active thread context
