Global frequency set at 1000000000000 ticks per second
Hey, I am a DBICache component + Deepanjali
Hey, I am a RDBI component
gem5 Simulator System.  https://www.gem5.org
gem5 is copyrighted software; use the --copyright option for details.

gem5 version 22.0.0.2
gem5 compiled Mar 14 2023 05:00:37
gem5 started Mar 14 2023 05:02:43
gem5 executing on v100-gpu-4, pid 9588
command line: build/X86/gem5.opt --stats-file =dbi.txt configs/learning_gem5/DebugDBI/DBICache/config.py test-benchmark/test -n 3000 -k 4 -t 1

Beginning simulation!
Packet address request from CPU: 15360
Packet address request from CPU: 183808
Packet address request from CPU: 18816
Packet address request from CPU: 183744
Packet address request from CPU: 18880
Packet address request from CPU: 171072
Packet address request from CPU: 171648
Packet address request from CPU: 172032
Packet address request from CPU: 174528
Packet address request from CPU: 18944
Packet address request from CPU: 19008
Packet address request from CPU: 174720
Packet address request from CPU: 174592
Packet address request from CPU: 19520
Packet address request from CPU: 19584
Packet address request from CPU: 19904
Packet address request from CPU: 175168
Packet address request from CPU: 174656
Packet address request from CPU: 171712
Packet address request from CPU: 171776
Packet address request from CPU: 174784
Packet address request from CPU: 171840
Packet address request from CPU: 19072
Packet address request from CPU: 174912
Packet address request from CPU: 174848
Packet address request from CPU: 171904
Packet address request from CPU: 174976
Packet address request from CPU: 19136
Packet address request from CPU: 19200
Packet address request from CPU: 19264
Packet address request from CPU: 19328
Packet address request from CPU: 19648
Packet address request from CPU: 19712
Packet address request from CPU: 14528
Packet address request from CPU: 19776
Packet address request from CPU: 171392
Packet address request from CPU: 14592
Packet address request from CPU: 171456
Packet address request from CPU: 14656
Packet address request from CPU: 14720
Packet address request from CPU: 14784
Packet address request from CPU: 171520
Packet address request from CPU: 19840
Packet address request from CPU: 13440
Packet address request from CPU: 137152
Packet address request from CPU: 19968
Packet address request from CPU: 171968
Packet address request from CPU: 13312
Packet address request from CPU: 13376
Packet address request from CPU: 14848
Packet address request from CPU: 13760
Packet address request from CPU: 13504
Packet address request from CPU: 13568
Packet address request from CPU: 14912
Packet address request from CPU: 19392
Packet address request from CPU: 175296
Packet address request from CPU: 183680
Packet address request from CPU: 60032
Packet address request from CPU: 12928
Packet address request from CPU: 60096
Packet address request from CPU: 175360
Packet address request from CPU: 19456
Packet address request from CPU: 171584
Packet address request from CPU: 174464
Packet address request from CPU: 116096
Packet address request from CPU: 183616
Packet address request from CPU: 116160
Packet address request from CPU: 171136
Packet address request from CPU: 176384
Packet address request from CPU: 183872
Packet address request from CPU: 116224
Packet address request from CPU: 171264
Packet address request from CPU: 171200
Packet address request from CPU: 116288
Packet address request from CPU: 183552
Packet address request from CPU: 116352
Packet address request from CPU: 116416
Packet address request from CPU: 139648
Packet address request from CPU: 139584
Packet address request from CPU: 116736
Packet address request from CPU: 183936
Packet address request from CPU: 139520
Packet address request from CPU: 116800
Packet address request from CPU: 116672
Packet address request from CPU: 184000
Packet address request from CPU: 184064
Packet address request from CPU: 184128
Packet address request from CPU: 116608
Packet address request from CPU: 184192
Packet address request from CPU: 116992
Packet address request from CPU: 116480
Packet address request from CPU: 116544
Packet address request from CPU: 119808
Packet address request from CPU: 176320
Packet address request from CPU: 119872
Packet address request from CPU: 116864
Packet address request from CPU: 114752
Packet address request from CPU: 183488
Packet address request from CPU: 114816
Packet address request from CPU: 114880
Packet address request from CPU: 114944
Packet address request from CPU: 115008
Packet address request from CPU: 171328
Packet address request from CPU: 119936
Packet address request from CPU: 176256
Packet address request from CPU: 116928
Packet address request from CPU: 20928
Packet address request from CPU: 20992
Packet address request from CPU: 183360
Packet address request from CPU: 176000
Packet address request from CPU: 175936
Packet address request from CPU: 21056
Packet address request from CPU: 183424
Packet address request from CPU: 21120
Packet address request from CPU: 183296
Packet address request from CPU: 117888
Packet address request from CPU: 117952
Packet address request from CPU: 21248
Packet address request from CPU: 170944
Packet address request from CPU: 21440
Packet address request from CPU: 22016
Packet address request from CPU: 22080
Packet address request from CPU: 60352
Packet address request from CPU: 183232
Packet address request from CPU: 130880
Packet address request from CPU: 141376
Packet address request from CPU: 60416
Packet address request from CPU: 60928
Packet address request from CPU: 60992
Packet address request from CPU: 14976
Packet address request from CPU: 118400
Packet address request from CPU: 118336
Packet address request from CPU: 118080
Packet address request from CPU: 183168
Packet address request from CPU: 118144
Packet address request from CPU: 118272
Packet address request from CPU: 60480
Packet address request from CPU: 176512
Packet address request from CPU: 177152
Packet address request from CPU: 134848
Packet address request from CPU: 177856
Packet address request from CPU: 134912
Packet address request from CPU: 134976
Packet address request from CPU: 177216
Packet address request from CPU: 60544
Packet address request from CPU: 176448
Packet address request from CPU: 177408
Packet address request from CPU: 60608
Packet address request from CPU: 177600
Packet address request from CPU: 177664
Packet address request from CPU: 177728
Packet address request from CPU: 177792
Packet address request from CPU: 177344
Packet address request from CPU: 60672
Packet address request from CPU: 172096
Packet address request from CPU: 61184
Packet address request from CPU: 61248
Packet address request from CPU: 60736
Packet address request from CPU: 60800
Packet address request from CPU: 22144
Packet address request from CPU: 60160
Packet address request from CPU: 60224
Packet address request from CPU: 15488
Packet address request from CPU: 174400
Packet address request from CPU: 60288
Packet address request from CPU: 177280
Packet address request from CPU: 22208
Packet address request from CPU: 22272
Packet address request from CPU: 64
Packet address request from CPU: 24512
Packet address request from CPU: 24704
Packet address request from CPU: 128
Packet address request from CPU: 176128
Packet address request from CPU: 24576
Packet address request from CPU: 192
Packet address request from CPU: 24640
Packet address request from CPU: 256
Packet address request from CPU: 24832
Packet address request from CPU: 320
Packet address request from CPU: 384
Packet address request from CPU: 22336
Packet address request from CPU: 448
Packet address request from CPU: 512
Packet address request from CPU: 24448
Packet address request from CPU: 22400
Packet address request from CPU: 22464
Packet address request from CPU: 177536
Packet address request from CPU: 22528
Packet address request from CPU: 125568
Packet address request from CPU: 125632
Packet address request from CPU: 125696
Packet address request from CPU: 140480
Packet address request from CPU: 129408
Packet address request from CPU: 14208
Packet address request from CPU: 129472
Packet address request from CPU: 130688
Packet address request from CPU: 130752
Packet address request from CPU: 22592
Packet address request from CPU: 176064
Packet address request from CPU: 22656
Packet address request from CPU: 7680
Packet address request from CPU: 22720
Packet address request from CPU: 176640
Packet address request from CPU: 7744
Packet address request from CPU: 176704
Packet address request from CPU: 176768
Packet address request from CPU: 7808
Packet address request from CPU: 22784
Packet address request from CPU: 24896
Packet address request from CPU: 24960
Packet address request from CPU: 25024
Packet address request from CPU: 176576
Packet address request from CPU: 7872
Packet address request from CPU: 7936
Packet address request from CPU: 8000
Packet address request from CPU: 176832
Packet address request from CPU: 8064
Packet address request from CPU: 176896
Packet address request from CPU: 22912
Packet address request from CPU: 22976
Packet address request from CPU: 23040
Packet address request from CPU: 23104
Packet address request from CPU: 640
Packet address request from CPU: 23168
Packet address request from CPU: 177920
Packet address request from CPU: 178624
Packet address request from CPU: 179072
Packet address request from CPU: 179008
Packet address request from CPU: 178688
Packet address request from CPU: 178880
Packet address request from CPU: 178752
Packet address request from CPU: 178816
Packet address request from CPU: 61056
Packet address request from CPU: 61120
Packet address request from CPU: 184320
Packet address request from CPU: 178560
Packet address request from CPU: 23232
Packet address request from CPU: 23296
Packet address request from CPU: 23360
Packet address request from CPU: 23424
Packet address request from CPU: 23488
Packet address request from CPU: 177984
Packet address request from CPU: 30976
Packet address request from CPU: 31040
Packet address request from CPU: 23616
Packet address request from CPU: 23680
Packet address request from CPU: 23744
Packet address request from CPU: 23808
Packet address request from CPU: 178112
Packet address request from CPU: 23872
Packet address request from CPU: 178368
Packet address request from CPU: 23936
Packet address request from CPU: 24000
Packet address request from CPU: 178176
Packet address request from CPU: 24064
Packet address request from CPU: 178240
Packet address request from CPU: 24128
Packet address request from CPU: 24192
Packet address request from CPU: 178048
Packet address request from CPU: 24256
Packet address request from CPU: 24320
Packet address request from CPU: 24384
Packet address request from CPU: 117440
Packet address request from CPU: 117504
Packet address request from CPU: 182784
Packet address request from CPU: 117696
Packet address request from CPU: 124160
Packet address request from CPU: 182976
Packet address request from CPU: 117760
Packet address request from CPU: 117632
Packet address request from CPU: 26560
Packet address request from CPU: 26624
Packet address request from CPU: 46336
Packet address request from CPU: 46400
Packet address request from CPU: 74240
Packet address request from CPU: 183104
Packet address request from CPU: 183040
Packet address request from CPU: 74304
Packet address request from CPU: 74368
Packet address request from CPU: 74880
Packet address request from CPU: 74944
Packet address request from CPU: 123648
Packet address request from CPU: 123712
Packet address request from CPU: 76032
Packet address request from CPU: 76096
Packet address request from CPU: 74816
Packet address request from CPU: 75008
Packet address request from CPU: 75072
Packet address request from CPU: 75968
Packet address request from CPU: 76160
Packet address request from CPU: 76224
Packet address request from CPU: 134272
Packet address request from CPU: 142592
Packet address request from CPU: 134336
Packet address request from CPU: 134400
Packet address request from CPU: 76288
Packet address request from CPU: 46464
Packet address request from CPU: 179136
Packet address request from CPU: 46528
Packet address request from CPU: 179200
Packet address request from CPU: 46592
Packet address request from CPU: 134016
Packet address request from CPU: 134080
Packet address request from CPU: 134208
Packet address request from CPU: 46656
Packet address request from CPU: 179264
Packet address request from CPU: 138432
Packet address request from CPU: 138496
Packet address request from CPU: 46720
Packet address request from CPU: 179328
Packet address request from CPU: 179392
Packet address request from CPU: 179456
Packet address request from CPU: 176192
Packet address request from CPU: 46784
Packet address request from CPU: 47168
Packet address request from CPU: 47232
Packet address request from CPU: 46848
Packet address request from CPU: 47104
Packet address request from CPU: 82048
Packet address request from CPU: 82176
Packet address request from CPU: 82112
Packet address request from CPU: 26688
Packet address request from CPU: 26752
Packet address request from CPU: 12288
Packet address request from CPU: 26816
Packet address request from CPU: 175232
Packet address request from CPU: 12672
Packet address request from CPU: 26880
Packet address request from CPU: 175616
Packet address request from CPU: 26944
Packet address request from CPU: 90752
Packet address request from CPU: 27008
Packet address request from CPU: 27072
Packet address request from CPU: 27136
Packet address request from CPU: 69568
Packet address request from CPU: 69632
Packet address request from CPU: 69696
Packet address request from CPU: 73600
Packet address request from CPU: 69760
Packet address request from CPU: 69824
Packet address request from CPU: 69888
Packet address request from CPU: 69952
Packet address request from CPU: 72832
Packet address request from CPU: 72896
Packet address request from CPU: 74176
Packet address request from CPU: 70016
Packet address request from CPU: 70080
Packet address request from CPU: 125056
Packet address request from CPU: 960
Packet address request from CPU: 125120
Packet address request from CPU: 70144
Packet address request from CPU: 79104
Packet address request from CPU: 79168
Packet address request from CPU: 182656
Packet address request from CPU: 182720
Packet address request from CPU: 182592
Packet address request from CPU: 79232
Packet address request from CPU: 124288
Packet address request from CPU: 124352
Packet address request from CPU: 68480
Packet address request from CPU: 68544
Packet address request from CPU: 47616
Packet address request from CPU: 182528
Packet address request from CPU: 181568
Packet address request from CPU: 181632
Packet address request from CPU: 47680
Packet address request from CPU: 47744
Packet address request from CPU: 84416
Packet address request from CPU: 140544
Packet address request from CPU: 130368
Packet address request from CPU: 130432
Packet address request from CPU: 84480
Packet address request from CPU: 47808
Packet address request from CPU: 47872
Packet address request from CPU: 47936
Packet address request from CPU: 48000
Packet address request from CPU: 181696
Packet address request from CPU: 48448
Packet address request from CPU: 48512
Packet address request from CPU: 48832
Packet address request from CPU: 48896
Packet address request from CPU: 49024
Packet address request from CPU: 48960
Packet address request from CPU: 49792
Packet address request from CPU: 49856
Packet address request from CPU: 50304
Packet address request from CPU: 48576
Packet address request from CPU: 48640
Packet address request from CPU: 49472
Packet address request from CPU: 49536
Packet address request from CPU: 110784
Packet address request from CPU: 181504
Packet address request from CPU: 111360
Packet address request from CPU: 111424
Packet address request from CPU: 181440
Packet address request from CPU: 83712
Packet address request from CPU: 83776
Packet address request from CPU: 181248
Packet address request from CPU: 123584
Packet address request from CPU: 123456
Packet address request from CPU: 181312
Packet address request from CPU: 83840
Packet address request from CPU: 123840
Packet address request from CPU: 123904
Packet address request from CPU: 181184
Packet address request from CPU: 123968
Packet address request from CPU: 132672
Packet address request from CPU: 188416
Packet address request from CPU: 132736
Packet address request from CPU: 143808
Packet address request from CPU: 132800
Packet address request from CPU: 132864
Packet address request from CPU: 132928
Packet address request from CPU: 111488
Packet address request from CPU: 111552
Packet address request from CPU: 194624
Packet address request from CPU: 143872
Packet address request from CPU: 110848
Packet address request from CPU: 142628
Packet address request from CPU: 142629
Packet address request from CPU: 142630
Packet address request from CPU: 142631
Packet address request from CPU: 142632
Packet address request from CPU: 142633
Packet address request from CPU: 142634
Packet address request from CPU: 142635
Packet address request from CPU: 142636
Packet address request from CPU: 142637
Packet address request from CPU: 142638
Packet address request from CPU: 142639
Packet address request from CPU: 142640
Packet address request from CPU: 142641
Packet address request from CPU: 142642
Packet address request from CPU: 142643
Packet address request from CPU: 142644
Packet address request from CPU: 142645
Packet address request from CPU: 142646
Packet address request from CPU: 110912
Packet address request from CPU: 196800
Packet address request from CPU: 110976
Packet address request from CPU: 110528
Packet address request from CPU: 203776
Packet address request from CPU: 110720
Packet address request from CPU: 206016
Packet address request from CPU: 212608
Packet address request from CPU: 208640
Packet address request from CPU: 216128
Packet address request from CPU: 207360
Packet address request from CPU: 220416
Packet address request from CPU: 206656
Packet address request from CPU: 218240
Packet address request from CPU: 206336
Packet address request from CPU: 217408
Packet address request from CPU: 206528
Packet address request from CPU: 217792
Packet address request from CPU: 206400
Packet address request from CPU: 217600
Packet address request from CPU: 206464
Packet address request from CPU: 217664
Packet address request from CPU: 110592
Packet address request from CPU: 110656
Packet address request from CPU: 111040
Packet address request from CPU: 111104
Packet address request from CPU: 111168
Packet address request from CPU: 112576
Packet address request from CPU: 111936
Packet address request from CPU: 112000
Packet address request from CPU: 112064
Packet address request from CPU: 130944
Packet address request from CPU: 217728
Packet address request from CPU: 131008
Packet address request from CPU: 112128
Packet address request from CPU: 181376
Packet address request from CPU: 135040
Packet address request from CPU: 135168
Packet address request from CPU: 130816
Packet address request from CPU: 179520
Packet address request from CPU: 135104
Packet address request from CPU: 49600
Packet address request from CPU: 34624
Packet address request from CPU: 34688
Packet address request from CPU: 34752
Packet address request from CPU: 34816
Packet address request from CPU: 153600
Packet address request from CPU: 35712
Packet address request from CPU: 35776
Packet address request from CPU: 34880
Packet address request from CPU: 181760
Packet address request from CPU: 34944
Packet address request from CPU: 35008
Packet address request from CPU: 181824
Packet address request from CPU: 181888
Packet address request from CPU: 181952
Packet address request from CPU: 182016
Packet address request from CPU: 182080
Packet address request from CPU: 35072
Packet address request from CPU: 35136
Packet address request from CPU: 182336
Packet address request from CPU: 182400
Packet address request from CPU: 35200
Packet address request from CPU: 48704
Packet address request from CPU: 48768
Packet address request from CPU: 48128
Packet address request from CPU: 48192
Packet address request from CPU: 37696
Packet address request from CPU: 37760
Packet address request from CPU: 37824
Packet address request from CPU: 37888
Packet address request from CPU: 175424
Packet address request from CPU: 38080
Packet address request from CPU: 38144
Packet address request from CPU: 181120
Packet address request from CPU: 118208
Packet address request from CPU: 181056
Packet address request from CPU: 221184
Packet address request from CPU: 221888
Packet address request from CPU: 222336
Packet address request from CPU: 222272
Packet address request from CPU: 221952
Packet address request from CPU: 222144
Packet address request from CPU: 222016
Packet address request from CPU: 222080
Packet address request from CPU: 134464
Packet address request from CPU: 134528
Packet address request from CPU: 134592
Packet address request from CPU: 38208
Packet address request from CPU: 221824
Packet address request from CPU: 38272
Packet address request from CPU: 38336
Packet address request from CPU: 38400
Packet address request from CPU: 38464
Packet address request from CPU: 38784
Packet address request from CPU: 38528
Packet address request from CPU: 38592
Packet address request from CPU: 38656
Packet address request from CPU: 180736
Packet address request from CPU: 38720
Packet address request from CPU: 180800
Packet address request from CPU: 182144
Packet address request from CPU: 38848
Packet address request from CPU: 222208
Packet address request from CPU: 38912
Packet address request from CPU: 90496
Packet address request from CPU: 90560
Packet address request from CPU: 182208
Packet address request from CPU: 38976
Packet address request from CPU: 182272
Packet address request from CPU: 39040
Packet address request from CPU: 39104
Packet address request from CPU: 180672
Packet address request from CPU: 39168
Packet address request from CPU: 41536
Packet address request from CPU: 41600
Packet address request from CPU: 124096
Packet address request from CPU: 39232
Packet address request from CPU: 39296
Packet address request from CPU: 39360
Packet address request from CPU: 39424
Packet address request from CPU: 41280
Packet address request from CPU: 41344
Packet address request from CPU: 134144
Packet address request from CPU: 227072
Packet address request from CPU: 229312
Packet address request from CPU: 227136
Packet address request from CPU: 227200
Packet address request from CPU: 227264
Packet address request from CPU: 227328
Packet address request from CPU: 227392
Packet address request from CPU: 227456
Packet address request from CPU: 227520
Packet address request from CPU: 227584
Packet address request from CPU: 227648
Packet address request from CPU: 227712
Packet address request from CPU: 227776
Packet address request from CPU: 227840
Packet address request from CPU: 227904
Packet address request from CPU: 227968
Packet address request from CPU: 228032
Packet address request from CPU: 228096
Packet address request from CPU: 228160
Packet address request from CPU: 228224
Packet address request from CPU: 228288
Packet address request from CPU: 228352
Packet address request from CPU: 228416
Packet address request from CPU: 228480
Packet address request from CPU: 228544
Packet address request from CPU: 228608
Packet address request from CPU: 228672
Packet address request from CPU: 228736
Packet address request from CPU: 228800
Packet address request from CPU: 228864
Packet address request from CPU: 228928
Packet address request from CPU: 228992
Packet address request from CPU: 229056
Packet address request from CPU: 229120
Packet address request from CPU: 229184
Packet address request from CPU: 229248
Packet address request from CPU: 41792
Packet address request from CPU: 39808
Packet address request from CPU: 232320
Packet address request from CPU: 39872
Packet address request from CPU: 39936
Packet address request from CPU: 221248
Packet address request from CPU: 221312
Packet address request from CPU: 232384
Packet address request from CPU: 221440
Packet address request from CPU: 232448
Packet address request from CPU: 40000
Packet address request from CPU: 41216
Packet address request from CPU: 232512
Packet address request from CPU: 221376
Packet address request from CPU: 232576
Packet address request from CPU: 232640
Packet address request from CPU: 221504
Packet address request from CPU: 232704
Packet address request from CPU: 221632
Packet address request from CPU: 221568
Packet address request from CPU: 40064
Packet address request from CPU: 40128
Packet address request from CPU: 40192
Packet address request from CPU: 40256
Packet address request from CPU: 41984
Packet address request from CPU: 40320
Packet address request from CPU: 40448
Packet address request from CPU: 40512
Packet address request from CPU: 40576
Packet address request from CPU: 234112
Packet address request from CPU: 234176
Packet address request from CPU: 40704
Packet address request from CPU: 40768
Packet address request from CPU: 79296
Packet address request from CPU: 70208
Packet address request from CPU: 182912
Packet address request from CPU: 70272
Packet address request from CPU: 70592
Packet address request from CPU: 70720
Packet address request from CPU: 72704
Packet address request from CPU: 73088
Packet address request from CPU: 72960
Packet address request from CPU: 239744
Packet address request from CPU: 239808
Packet address request from CPU: 125184
Packet address request from CPU: 125248
Packet address request from CPU: 125376
Packet address request from CPU: 125440
Packet address request from CPU: 182464
Packet address request from CPU: 128448
Packet address request from CPU: 128512
Packet address request from CPU: 129728
Packet address request from CPU: 129792
Packet address request from CPU: 129856
Packet address request from CPU: 14272
Packet address request from CPU: 129920
Packet address request from CPU: 70656
Packet address request from CPU: 222400
Packet address request from CPU: 175488
Packet address request from CPU: 72768
Packet address request from CPU: 71424
Packet address request from CPU: 71488
Packet address request from CPU: 71552
Packet address request from CPU: 71616
Packet address request from CPU: 222464
Packet address request from CPU: 71680
Packet address request from CPU: 73664
Packet address request from CPU: 73728
Packet address request from CPU: 72064
Packet address request from CPU: 72128
Packet address request from CPU: 72192
Packet address request from CPU: 72384
Packet address request from CPU: 72448
Packet address request from CPU: 72320
Packet address request from CPU: 72512
Packet address request from CPU: 72576
Packet address request from CPU: 72640
Packet address request from CPU: 27200
Packet address request from CPU: 27264
Packet address request from CPU: 27328
Packet address request from CPU: 27520
Packet address request from CPU: 27584
Packet address request from CPU: 27648
Packet address request from CPU: 31616
Packet address request from CPU: 27712
Packet address request from CPU: 79360
Packet address request from CPU: 18752
Packet address request from CPU: 86784
Packet address request from CPU: 86848
Packet address request from CPU: 85568
Packet address request from CPU: 85632
Packet address request from CPU: 1088
Packet address request from CPU: 85696
Packet address request from CPU: 85760
Packet address request from CPU: 85824
Packet address request from CPU: 85888
Packet address request from CPU: 84608
Packet address request from CPU: 84672
Packet address request from CPU: 182848
Packet address request from CPU: 84736
Packet address request from CPU: 244544
Packet address request from CPU: 244608
Packet address request from CPU: 84992
Packet address request from CPU: 1024
Packet address request from CPU: 85952
Packet address request from CPU: 86144
Packet address request from CPU: 86208
Packet address request from CPU: 86272
Packet address request from CPU: 86336
Packet address request from CPU: 222528
Packet address request from CPU: 86400
Packet address request from CPU: 86528
Packet address request from CPU: 245440
Packet address request from CPU: 14336
Packet address request from CPU: 14400
Packet address request from CPU: 245504
Packet address request from CPU: 14464
Packet address request from CPU: 240064
Packet address request from CPU: 244672
Packet address request from CPU: 244736
Packet address request from CPU: 244800
Packet address request from CPU: 244864
Packet address request from CPU: 244928
Packet address request from CPU: 244992
Packet address request from CPU: 245056
Packet address request from CPU: 245120
Packet address request from CPU: 245184
Packet address request from CPU: 245248
Packet address request from CPU: 245312
Packet address request from CPU: 245376
Packet address request from CPU: 223168
Packet address request from CPU: 223232
Packet address request from CPU: 86464
Packet address request from CPU: 222592
Packet address request from CPU: 222656
Packet address request from CPU: 222720
Packet address request from CPU: 222784
Packet address request from CPU: 222848
Packet address request from CPU: 222912
Packet address request from CPU: 222976
Packet address request from CPU: 223040
Packet address request from CPU: 223104
Packet address request from CPU: 223296
Packet address request from CPU: 223360
Packet address request from CPU: 79424
Packet address request from CPU: 27776
Packet address request from CPU: 15040
Packet address request from CPU: 172224
Packet address request from CPU: 15104
Packet address request from CPU: 15168
Packet address request from CPU: 178944
Packet address request from CPU: 15232
Packet address request from CPU: 90880
Packet address request from CPU: 90944
Packet address request from CPU: 91008
Packet address request from CPU: 91072
Packet address request from CPU: 91136
Packet address request from CPU: 223424
Packet address request from CPU: 91200
Packet address request from CPU: 91520
Packet address request from CPU: 91584
Packet address request from CPU: 247552
Packet address request from CPU: 249792
Packet address request from CPU: 247616
Packet address request from CPU: 247680
Packet address request from CPU: 247744
Packet address request from CPU: 247808
Packet address request from CPU: 247872
Packet address request from CPU: 247936
Packet address request from CPU: 248000
Packet address request from CPU: 248064
Packet address request from CPU: 248128
Packet address request from CPU: 248192
Packet address request from CPU: 248256
Packet address request from CPU: 248320
Packet address request from CPU: 248384
Packet address request from CPU: 248448
Packet address request from CPU: 248512
Packet address request from CPU: 248576
Packet address request from CPU: 248640
Packet address request from CPU: 248704
Packet address request from CPU: 248768
Packet address request from CPU: 248832
Packet address request from CPU: 248896
Packet address request from CPU: 248960
Packet address request from CPU: 249024
Packet address request from CPU: 249088
Packet address request from CPU: 249152
Packet address request from CPU: 249216
Packet address request from CPU: 249280
Packet address request from CPU: 249344
Packet address request from CPU: 249408
Packet address request from CPU: 249472
Packet address request from CPU: 249536
Packet address request from CPU: 249600
Packet address request from CPU: 249664
Packet address request from CPU: 249728
Packet address request from CPU: 91648
Packet address request from CPU: 249856
Packet address request from CPU: 15296
Packet address request from CPU: 27840
Packet address request from CPU: 177088
Packet address request from CPU: 29184
Packet address request from CPU: 29248
Packet address request from CPU: 28480
Packet address request from CPU: 28544
Packet address request from CPU: 28672
Packet address request from CPU: 28992
Packet address request from CPU: 28608
Packet address request from CPU: 62080
Packet address request from CPU: 62144
Packet address request from CPU: 62208
Packet address request from CPU: 63488
Packet address request from CPU: 62272
Packet address request from CPU: 253952
Packet address request from CPU: 62336
Packet address request from CPU: 64832
Packet address request from CPU: 62400
Packet address request from CPU: 62464
Packet address request from CPU: 62528
Packet address request from CPU: 62592
Packet address request from CPU: 62656
Packet address request from CPU: 62912
Packet address request from CPU: 62976
Packet address request from CPU: 63040
Packet address request from CPU: 260032
Packet address request from CPU: 245568
Packet address request from CPU: 245632
Packet address request from CPU: 245696
Packet address request from CPU: 260096
Packet address request from CPU: 262144
Packet address request from CPU: 262208
Packet address request from CPU: 262272
Packet address request from CPU: 260160
Packet address request from CPU: 262336
Packet address request from CPU: 262400
Packet address request from CPU: 262464
Packet address request from CPU: 260224
Packet address request from CPU: 262528
Packet address request from CPU: 262592
Packet address request from CPU: 262656
Packet address request from CPU: 260288
Packet address request from CPU: 262720
Packet address request from CPU: 262784
Packet address request from CPU: 262848
Packet address request from CPU: 260352
Packet address request from CPU: 262912
Packet address request from CPU: 262976
Packet address request from CPU: 260416
Packet address request from CPU: 263040
Packet address request from CPU: 263104
Packet address request from CPU: 260480
Packet address request from CPU: 263168
Packet address request from CPU: 260544
Packet address request from CPU: 263232
Packet address request from CPU: 260608
Packet address request from CPU: 263296
Packet address request from CPU: 260672
Packet address request from CPU: 263360
Packet address request from CPU: 263424
Packet address request from CPU: 260736
Packet address request from CPU: 263488
Packet address request from CPU: 263552
Packet address request from CPU: 263616
Packet address request from CPU: 260800
Packet address request from CPU: 263680
Packet address request from CPU: 263744
Packet address request from CPU: 260864
Packet address request from CPU: 263808
Packet address request from CPU: 263872
Packet address request from CPU: 263936
Packet address request from CPU: 260928
Packet address request from CPU: 264000
Packet address request from CPU: 264064
Packet address request from CPU: 264128
Packet address request from CPU: 261056
Packet address request from CPU: 264192
Packet address request from CPU: 264256
Packet address request from CPU: 261120
Packet address request from CPU: 264320
Packet address request from CPU: 261184
Packet address request from CPU: 264384
Packet address request from CPU: 264448
Packet address request from CPU: 264512
Packet address request from CPU: 261248
Packet address request from CPU: 264576
Packet address request from CPU: 261312
Packet address request from CPU: 264640
Packet address request from CPU: 264704
Packet address request from CPU: 261376
Packet address request from CPU: 264768
Packet address request from CPU: 261440
Packet address request from CPU: 264832
Packet address request from CPU: 261504
Packet address request from CPU: 264896
Packet address request from CPU: 264960
Packet address request from CPU: 265024
Packet address request from CPU: 261568
Packet address request from CPU: 265088
Packet address request from CPU: 265152
Packet address request from CPU: 265216
Packet address request from CPU: 261632
Packet address request from CPU: 265280
Packet address request from CPU: 265344
Packet address request from CPU: 265408
Packet address request from CPU: 261696
Packet address request from CPU: 265472
Packet address request from CPU: 265536
Packet address request from CPU: 265600
Packet address request from CPU: 261760
Packet address request from CPU: 265664
Packet address request from CPU: 261824
Packet address request from CPU: 265728
Packet address request from CPU: 261888
Packet address request from CPU: 265792
Packet address request from CPU: 261952
Packet address request from CPU: 265856
Packet address request from CPU: 262016
Packet address request from CPU: 265920
Packet address request from CPU: 262080
Packet address request from CPU: 265984
Packet address request from CPU: 266048
Packet address request from CPU: 266112
Packet address request from CPU: 266240
Packet address request from CPU: 266176
Packet address request from CPU: 270336
Packet address request from CPU: 270400
Packet address request from CPU: 266304
Packet address request from CPU: 270464
Packet address request from CPU: 270528
Packet address request from CPU: 270592
Packet address request from CPU: 266368
Packet address request from CPU: 270656
Packet address request from CPU: 270720
Packet address request from CPU: 270784
Packet address request from CPU: 266432
Packet address request from CPU: 270848
Packet address request from CPU: 270912
Packet address request from CPU: 270976
Packet address request from CPU: 266496
Packet address request from CPU: 271040
Packet address request from CPU: 271104
Packet address request from CPU: 271168
Packet address request from CPU: 266560
Packet address request from CPU: 271232
Packet address request from CPU: 271296
Packet address request from CPU: 271360
Packet address request from CPU: 266624
Packet address request from CPU: 271424
Packet address request from CPU: 271488
Packet address request from CPU: 271552
Packet address request from CPU: 266688
Packet address request from CPU: 271616
Packet address request from CPU: 271680
Packet address request from CPU: 271744
Packet address request from CPU: 266752
Packet address request from CPU: 271808
Packet address request from CPU: 271872
Packet address request from CPU: 271936
Packet address request from CPU: 266816
Packet address request from CPU: 272000
Packet address request from CPU: 272064
Packet address request from CPU: 272128
Packet address request from CPU: 266880
Packet address request from CPU: 272192
Packet address request from CPU: 272256
Packet address request from CPU: 272320
Packet address request from CPU: 266944
Packet address request from CPU: 272384
Packet address request from CPU: 272448
Packet address request from CPU: 272512
Packet address request from CPU: 267008
Packet address request from CPU: 272576
Packet address request from CPU: 267072
Packet address request from CPU: 272640
Packet address request from CPU: 267136
Packet address request from CPU: 267200
Packet address request from CPU: 272704
Packet address request from CPU: 272768
Packet address request from CPU: 272832
Packet address request from CPU: 267264
Packet address request from CPU: 267328
Packet address request from CPU: 272896
Packet address request from CPU: 272960
Packet address request from CPU: 273024
Packet address request from CPU: 267392
Packet address request from CPU: 273088
Packet address request from CPU: 267456
Packet address request from CPU: 273152
Packet address request from CPU: 267520
Packet address request from CPU: 273216
Packet address request from CPU: 273280
Packet address request from CPU: 267584
Packet address request from CPU: 267648
Packet address request from CPU: 273344
Packet address request from CPU: 267712
Packet address request from CPU: 273408
Packet address request from CPU: 273472
Packet address request from CPU: 267776
Packet address request from CPU: 273536
Packet address request from CPU: 273600
Packet address request from CPU: 273664
Packet address request from CPU: 267840
Packet address request from CPU: 273728
Packet address request from CPU: 273792
Packet address request from CPU: 268032
Packet address request from CPU: 273856
Packet address request from CPU: 268096
Packet address request from CPU: 273920
Packet address request from CPU: 268160
Packet address request from CPU: 273984
Packet address request from CPU: 274048
Packet address request from CPU: 268224
Packet address request from CPU: 274112
Packet address request from CPU: 268288
Packet address request from CPU: 274176
Packet address request from CPU: 274240
Packet address request from CPU: 274304
Packet address request from CPU: 268352
Packet address request from CPU: 274368
Packet address request from CPU: 274432
Packet address request from CPU: 274496
Packet address request from CPU: 268416
Packet address request from CPU: 274560
Packet address request from CPU: 274624
Packet address request from CPU: 274688
Packet address request from CPU: 268480
Packet address request from CPU: 274752
Packet address request from CPU: 274816
Packet address request from CPU: 274880
Packet address request from CPU: 268544
Packet address request from CPU: 274944
Packet address request from CPU: 275008
Packet address request from CPU: 275072
Packet address request from CPU: 268608
Packet address request from CPU: 275136
Packet address request from CPU: 275200
Packet address request from CPU: 268672
Packet address request from CPU: 275264
Packet address request from CPU: 275328
Packet address request from CPU: 275392
Packet address request from CPU: 268736
Packet address request from CPU: 275456
Packet address request from CPU: 275520
Packet address request from CPU: 275584
Packet address request from CPU: 268800
Packet address request from CPU: 275648
Packet address request from CPU: 275712
Packet address request from CPU: 275776
Packet address request from CPU: 268864
Packet address request from CPU: 275840
Packet address request from CPU: 275904
Packet address request from CPU: 275968
Packet address request from CPU: 268928
Packet address request from CPU: 276032
Packet address request from CPU: 276096
Packet address request from CPU: 276160
Packet address request from CPU: 268992
Packet address request from CPU: 276224
Packet address request from CPU: 276288
Packet address request from CPU: 276352
Packet address request from CPU: 269056
Packet address request from CPU: 276416
Packet address request from CPU: 276480
Packet address request from CPU: 276544
Packet address request from CPU: 269120
Packet address request from CPU: 276608
Packet address request from CPU: 276672
Packet address request from CPU: 276736
Packet address request from CPU: 269184
Packet address request from CPU: 276800
Packet address request from CPU: 276864
Packet address request from CPU: 276928
Packet address request from CPU: 269248
Packet address request from CPU: 276992
Packet address request from CPU: 277056
Packet address request from CPU: 277120
Packet address request from CPU: 269312
Packet address request from CPU: 277184
Packet address request from CPU: 277248
Packet address request from CPU: 269376
Packet address request from CPU: 277312
Packet address request from CPU: 277376
Packet address request from CPU: 277440
Packet address request from CPU: 269440
Packet address request from CPU: 277504
Packet address request from CPU: 277568
Packet address request from CPU: 277632
Packet address request from CPU: 269504
Packet address request from CPU: 277696
Packet address request from CPU: 277760
Packet address request from CPU: 277824
Packet address request from CPU: 269568
Packet address request from CPU: 277888
Packet address request from CPU: 277952
Packet address request from CPU: 278016
Packet address request from CPU: 269888
Packet address request from CPU: 278080
Packet address request from CPU: 269952
Packet address request from CPU: 278144
Packet address request from CPU: 278208
Packet address request from CPU: 278272
Packet address request from CPU: 270016
Packet address request from CPU: 278336
Packet address request from CPU: 278400
Packet address request from CPU: 278464
Packet address request from CPU: 270080
Packet address request from CPU: 278528
Packet address request from CPU: 278592
Packet address request from CPU: 278656
Packet address request from CPU: 270144
Packet address request from CPU: 278720
Packet address request from CPU: 278784
Packet address request from CPU: 282752
Packet address request from CPU: 278848
Packet address request from CPU: 278912
Packet address request from CPU: 282944
Packet address request from CPU: 278976
Packet address request from CPU: 283136
Packet address request from CPU: 279040
Packet address request from CPU: 283200
Packet address request from CPU: 279104
Packet address request from CPU: 283264
Packet address request from CPU: 279168
Packet address request from CPU: 283328
Packet address request from CPU: 279232
Packet address request from CPU: 283392
Packet address request from CPU: 279296
Packet address request from CPU: 283456
Packet address request from CPU: 279360
Packet address request from CPU: 283520
Packet address request from CPU: 279424
Packet address request from CPU: 283648
Packet address request from CPU: 279488
Packet address request from CPU: 279552
Packet address request from CPU: 283712
Packet address request from CPU: 279616
Packet address request from CPU: 279680
Packet address request from CPU: 283776
Packet address request from CPU: 279744
Packet address request from CPU: 279808
Packet address request from CPU: 283840
Packet address request from CPU: 279872
Packet address request from CPU: 283904
Packet address request from CPU: 279936
Packet address request from CPU: 280000
Packet address request from CPU: 283968
Packet address request from CPU: 280064
Packet address request from CPU: 280128
Packet address request from CPU: 280192
Packet address request from CPU: 284032
Packet address request from CPU: 280256
Packet address request from CPU: 280320
Packet address request from CPU: 280384
Packet address request from CPU: 284096
Packet address request from CPU: 280448
Packet address request from CPU: 280512
Packet address request from CPU: 284160
Packet address request from CPU: 280576
Packet address request from CPU: 280640
Packet address request from CPU: 284224
Packet address request from CPU: 280704
Packet address request from CPU: 280768
Packet address request from CPU: 284288
Packet address request from CPU: 280832
Packet address request from CPU: 280896
Packet address request from CPU: 284352
Packet address request from CPU: 280960
Packet address request from CPU: 281024
Packet address request from CPU: 284416
Packet address request from CPU: 281088
Packet address request from CPU: 281152
Packet address request from CPU: 284480
Packet address request from CPU: 281216
Packet address request from CPU: 281280
Packet address request from CPU: 281344
Packet address request from CPU: 284544
Packet address request from CPU: 281408
Packet address request from CPU: 281472
Packet address request from CPU: 284608
Packet address request from CPU: 281536
Packet address request from CPU: 281600
Packet address request from CPU: 284672
Packet address request from CPU: 281664
Packet address request from CPU: 281728
Packet address request from CPU: 284736
Packet address request from CPU: 281792
Packet address request from CPU: 281856
Packet address request from CPU: 281920
Packet address request from CPU: 284800
Packet address request from CPU: 281984
Packet address request from CPU: 282048
Packet address request from CPU: 282112
Packet address request from CPU: 284864
Packet address request from CPU: 282176
Packet address request from CPU: 282240
Packet address request from CPU: 284928
Packet address request from CPU: 282304
Packet address request from CPU: 282368
Packet address request from CPU: 284992
Packet address request from CPU: 282432
Packet address request from CPU: 282496
Packet address request from CPU: 285056
Packet address request from CPU: 282560
Packet address request from CPU: 286720
Packet address request from CPU: 285120
Packet address request from CPU: 286784
Packet address request from CPU: 285184
Packet address request from CPU: 286848
Packet address request from CPU: 286912
Packet address request from CPU: 285248
Packet address request from CPU: 286976
Packet address request from CPU: 287040
Packet address request from CPU: 285312
Packet address request from CPU: 287104
Packet address request from CPU: 285376
Packet address request from CPU: 287168
Packet address request from CPU: 285504
Packet address request from CPU: 287232
Packet address request from CPU: 287296
Packet address request from CPU: 285568
Packet address request from CPU: 287360
Packet address request from CPU: 287424
Packet address request from CPU: 287488
Packet address request from CPU: 285632
Packet address request from CPU: 287552
Packet address request from CPU: 287616
Packet address request from CPU: 287680
Packet address request from CPU: 285696
Packet address request from CPU: 287744
Packet address request from CPU: 287808
Packet address request from CPU: 287872
Packet address request from CPU: 285760
Packet address request from CPU: 287936
Packet address request from CPU: 285824
Packet address request from CPU: 288000
Packet address request from CPU: 288064
Packet address request from CPU: 288128
Packet address request from CPU: 285888
Packet address request from CPU: 288192
Packet address request from CPU: 288256
Packet address request from CPU: 285952
Packet address request from CPU: 288320
Packet address request from CPU: 286016
Packet address request from CPU: 288384
Packet address request from CPU: 288448
Packet address request from CPU: 288512
Packet address request from CPU: 286080
Packet address request from CPU: 288576
Packet address request from CPU: 288640
Packet address request from CPU: 288704
Packet address request from CPU: 286144
Packet address request from CPU: 286208
Packet address request from CPU: 288768
Packet address request from CPU: 288832
Packet address request from CPU: 288896
Packet address request from CPU: 286272
Packet address request from CPU: 288960
Packet address request from CPU: 289024
Packet address request from CPU: 289088
Packet address request from CPU: 286336
Packet address request from CPU: 289152
Packet address request from CPU: 289216
Packet address request from CPU: 286400
Packet address request from CPU: 289280
Packet address request from CPU: 289344
Packet address request from CPU: 289408
Packet address request from CPU: 286464
Packet address request from CPU: 289472
Packet address request from CPU: 289536
Packet address request from CPU: 289600
Packet address request from CPU: 286528
Packet address request from CPU: 289664
Packet address request from CPU: 286592
Packet address request from CPU: 289728
Packet address request from CPU: 289792
Packet address request from CPU: 289856
Packet address request from CPU: 286656
Packet address request from CPU: 289920
Packet address request from CPU: 289984
Packet address request from CPU: 290048
Packet address request from CPU: 229376
Packet address request from CPU: 290112
Packet address request from CPU: 229440
Packet address request from CPU: 290176
Packet address request from CPU: 290240
Packet address request from CPU: 290304
Packet address request from CPU: 229504
Packet address request from CPU: 290368
Packet address request from CPU: 290432
Packet address request from CPU: 290496
Packet address request from CPU: 229568
Packet address request from CPU: 290560
Packet address request from CPU: 229632
Packet address request from CPU: 290624
Packet address request from CPU: 290688
Packet address request from CPU: 290752
Packet address request from CPU: 229696
Packet address request from CPU: 290816
Packet address request from CPU: 290880
Packet address request from CPU: 290944
Packet address request from CPU: 229760
Packet address request from CPU: 291008
Packet address request from CPU: 229824
Packet address request from CPU: 291072
Packet address request from CPU: 291136
Packet address request from CPU: 291200
Packet address request from CPU: 229888
Packet address request from CPU: 291264
Packet address request from CPU: 291328
Packet address request from CPU: 291392
Packet address request from CPU: 229952
Packet address request from CPU: 291456
Packet address request from CPU: 230016
Packet address request from CPU: 291520
Packet address request from CPU: 291584
Packet address request from CPU: 291648
Packet address request from CPU: 230080
Packet address request from CPU: 291712
Packet address request from CPU: 291776
Packet address request from CPU: 291840
Packet address request from CPU: 230144
Packet address request from CPU: 291904
Packet address request from CPU: 230208
Packet address request from CPU: 291968
Packet address request from CPU: 292032
Packet address request from CPU: 292096
Packet address request from CPU: 230272
Packet address request from CPU: 292160
Packet address request from CPU: 292224
Packet address request from CPU: 292288
Packet address request from CPU: 230336
Packet address request from CPU: 292352
Packet address request from CPU: 230400
Packet address request from CPU: 292416
Packet address request from CPU: 292480
Packet address request from CPU: 292544
Packet address request from CPU: 230464
Packet address request from CPU: 292608
Packet address request from CPU: 292672
Packet address request from CPU: 292736
Packet address request from CPU: 230528
Packet address request from CPU: 292800
Packet address request from CPU: 292864
Packet address request from CPU: 230592
Packet address request from CPU: 292928
Packet address request from CPU: 292992
Packet address request from CPU: 293056
Packet address request from CPU: 230656
Packet address request from CPU: 293120
Packet address request from CPU: 293184
Packet address request from CPU: 293248
Packet address request from CPU: 230720
Packet address request from CPU: 293312
Packet address request from CPU: 230784
Packet address request from CPU: 293376
Packet address request from CPU: 293440
Packet address request from CPU: 293504
Packet address request from CPU: 230848
Packet address request from CPU: 293568
Packet address request from CPU: 293632
Packet address request from CPU: 293696
Packet address request from CPU: 230912
Packet address request from CPU: 293760
Packet address request from CPU: 230976
Packet address request from CPU: 293824
Packet address request from CPU: 293888
Packet address request from CPU: 293952
Packet address request from CPU: 231040
Packet address request from CPU: 294016
Packet address request from CPU: 294080
Packet address request from CPU: 294144
Packet address request from CPU: 231104
Packet address request from CPU: 294208
Packet address request from CPU: 231168
Packet address request from CPU: 294272
Packet address request from CPU: 294336
Packet address request from CPU: 294400
Packet address request from CPU: 231232
Packet address request from CPU: 294464
Packet address request from CPU: 294528
Packet address request from CPU: 294592
Packet address request from CPU: 231296
Packet address request from CPU: 294656
Packet address request from CPU: 231360
Packet address request from CPU: 294720
Packet address request from CPU: 294784
Packet address request from CPU: 294848
Packet address request from CPU: 231424
Packet address request from CPU: 294912
Packet address request from CPU: 294976
Packet address request from CPU: 295040
Packet address request from CPU: 231488
Packet address request from CPU: 295104
Packet address request from CPU: 231552
Packet address request from CPU: 295168
Packet address request from CPU: 231616
Packet address request from CPU: 231680
Packet address request from CPU: 295232
Packet address request from CPU: 231744
Packet address request from CPU: 295296
Packet address request from CPU: 231808
Packet address request from CPU: 295360
Packet address request from CPU: 295424
Packet address request from CPU: 295488
Packet address request from CPU: 231872
Packet address request from CPU: 295552
Packet address request from CPU: 295616
Packet address request from CPU: 295680
Packet address request from CPU: 231936
Packet address request from CPU: 295744
Packet address request from CPU: 232000
Packet address request from CPU: 295808
Packet address request from CPU: 232064
Packet address request from CPU: 232128
Packet address request from CPU: 295872
Packet address request from CPU: 295936
Packet address request from CPU: 232192
Packet address request from CPU: 296000
Packet address request from CPU: 232256
Packet address request from CPU: 296064
Packet address request from CPU: 296128
Packet address request from CPU: 254720
Packet address request from CPU: 296192
Packet address request from CPU: 254784
Packet address request from CPU: 296256
Packet address request from CPU: 254848
Packet address request from CPU: 296320
Packet address request from CPU: 254912
Packet address request from CPU: 296384
Packet address request from CPU: 254976
Packet address request from CPU: 296448
Packet address request from CPU: 296512
Packet address request from CPU: 255040
Packet address request from CPU: 296576
Packet address request from CPU: 255104
Packet address request from CPU: 296640
Packet address request from CPU: 296704
Packet address request from CPU: 255168
Packet address request from CPU: 296768
Packet address request from CPU: 255232
Packet address request from CPU: 296832
Packet address request from CPU: 255296
Packet address request from CPU: 296896
Packet address request from CPU: 255360
Packet address request from CPU: 296960
Packet address request from CPU: 255424
Packet address request from CPU: 297024
Packet address request from CPU: 297088
Packet address request from CPU: 297152
Packet address request from CPU: 255488
Packet address request from CPU: 297216
Packet address request from CPU: 297280
Packet address request from CPU: 255552
Packet address request from CPU: 297344
Packet address request from CPU: 255872
Packet address request from CPU: 256192
Packet address request from CPU: 256320
Packet address request from CPU: 297408
Packet address request from CPU: 256384
Packet address request from CPU: 297472
Packet address request from CPU: 256704
Packet address request from CPU: 256768
Packet address request from CPU: 297536
Packet address request from CPU: 226176
Packet address request from CPU: 297600
Packet address request from CPU: 226240
Packet address request from CPU: 297664
Packet address request from CPU: 297728
Packet address request from CPU: 226304
Packet address request from CPU: 297792
Packet address request from CPU: 297856
Packet address request from CPU: 226368
Packet address request from CPU: 297920
Packet address request from CPU: 297984
Packet address request from CPU: 298048
Packet address request from CPU: 226432
Packet address request from CPU: 298112
Packet address request from CPU: 298176
Packet address request from CPU: 298240
Packet address request from CPU: 226496
Packet address request from CPU: 298304
Packet address request from CPU: 298368
Packet address request from CPU: 298432
Packet address request from CPU: 226560
Packet address request from CPU: 226752
Packet address request from CPU: 298496
Packet address request from CPU: 226816
Packet address request from CPU: 226944
Packet address request from CPU: 298560
Packet address request from CPU: 227008
Packet address request from CPU: 298624
Packet address request from CPU: 63104
Packet address request from CPU: 63168
Packet address request from CPU: 240832
Packet address request from CPU: 63232
Packet address request from CPU: 299648
Packet address request from CPU: 63296
Packet address request from CPU: 63360
Packet address request from CPU: 63424
Packet address request from CPU: 55808
Packet address request from CPU: 305024
Packet address request from CPU: 55872
Packet address request from CPU: 305088
Packet address request from CPU: 55936
Packet address request from CPU: 56000
Packet address request from CPU: 56064
Packet address request from CPU: 56128
Packet address request from CPU: 52864
Packet address request from CPU: 52928
Packet address request from CPU: 52992
Packet address request from CPU: 53056
Packet address request from CPU: 53120
Packet address request from CPU: 53184
Packet address request from CPU: 53248
Packet address request from CPU: 235008
Packet address request from CPU: 54656
Packet address request from CPU: 236928
Packet address request from CPU: 54720
Packet address request from CPU: 54784
Packet address request from CPU: 307328
Packet address request from CPU: 54848
Packet address request from CPU: 52480
Packet address request from CPU: 52544
Packet address request from CPU: 52608
Packet address request from CPU: 52736
Packet address request from CPU: 52800
Packet address request from CPU: 52672
Packet address request from CPU: 54912
Packet address request from CPU: 55616
Packet address request from CPU: 55680
Packet address request from CPU: 53632
Packet address request from CPU: 53696
Packet address request from CPU: 53312
Packet address request from CPU: 56192
Packet address request from CPU: 56256
Packet address request from CPU: 138560
Packet address request from CPU: 63680
Packet address request from CPU: 314752
Packet address request from CPU: 64128
Packet address request from CPU: 138624
Packet address request from CPU: 64384
Packet address request from CPU: 64448
Packet address request from CPU: 232832
Packet address request from CPU: 298688
Packet address request from CPU: 298752
Packet address request from CPU: 298816
Packet address request from CPU: 232896
Packet address request from CPU: 232960
Packet address request from CPU: 298880
Packet address request from CPU: 233024
Packet address request from CPU: 233152
Packet address request from CPU: 298944
Packet address request from CPU: 233216
Packet address request from CPU: 233408
Packet address request from CPU: 242752
Packet address request from CPU: 318144
Packet address request from CPU: 319808
Packet address request from CPU: 235776
Packet address request from CPU: 324672
Packet address request from CPU: 311104
Packet address request from CPU: 327680
Packet address request from CPU: 243200
Packet address request from CPU: 331904
Packet address request from CPU: 320064
Packet address request from CPU: 320128
Packet address request from CPU: 235904
Packet address request from CPU: 325120
Packet address request from CPU: 312000
Packet address request from CPU: 243648
Packet address request from CPU: 337152
Packet address request from CPU: 320192
Packet address request from CPU: 320256
Packet address request from CPU: 325440
Packet address request from CPU: 312896
Packet address request from CPU: 327744
Packet address request from CPU: 244160
Packet address request from CPU: 343616
Packet address request from CPU: 321216
Packet address request from CPU: 234944
Packet address request from CPU: 325888
Packet address request from CPU: 313984
Packet address request from CPU: 241408
Packet address request from CPU: 347520
Packet address request from CPU: 321728
Packet address request from CPU: 234624
Packet address request from CPU: 237504
Packet address request from CPU: 308480
Packet address request from CPU: 331840
Packet address request from CPU: 322048
Packet address request from CPU: 235584
Packet address request from CPU: 327808
Packet address request from CPU: 242432
Packet address request from CPU: 351552
Packet address request from CPU: 320576
Packet address request from CPU: 320640
Packet address request from CPU: 234752
Packet address request from CPU: 324416
Packet address request from CPU: 310528
Packet address request from CPU: 240640
Packet address request from CPU: 354304
Packet address request from CPU: 304576
Packet address request from CPU: 234496
Packet address request from CPU: 236736
Packet address request from CPU: 327360
Packet address request from CPU: 314816
Packet address request from CPU: 322304
Packet address request from CPU: 326144
Packet address request from CPU: 314432
Packet address request from CPU: 314496
Packet address request from CPU: 55296
Packet address request from CPU: 55360
Packet address request from CPU: 54976
Packet address request from CPU: 12992
Packet address request from CPU: 13056
Packet address request from CPU: 13120
Packet address request from CPU: 13632
Packet address request from CPU: 13888
Packet address request from CPU: 57088
Packet address request from CPU: 327872
Packet address request from CPU: 240576
Packet address request from CPU: 354048
Packet address request from CPU: 322880
Packet address request from CPU: 234688
Packet address request from CPU: 327296
Packet address request from CPU: 242624
Packet address request from CPU: 317056
Packet address request from CPU: 323008
Packet address request from CPU: 234368
Packet address request from CPU: 324608
Packet address request from CPU: 310912
Packet address request from CPU: 317120
Packet address request from CPU: 327936
Packet address request from CPU: 242560
Packet address request from CPU: 315904
Packet address request from CPU: 323200
Packet address request from CPU: 235392
Packet address request from CPU: 324480
Packet address request from CPU: 310720
Packet address request from CPU: 240448
Packet address request from CPU: 360256
Packet address request from CPU: 360576
Packet address request from CPU: 234880
Packet address request from CPU: 236544
Packet address request from CPU: 326976
Packet address request from CPU: 351360
Packet address request from CPU: 360832
Packet address request from CPU: 360896
Packet address request from CPU: 310464
Packet address request from CPU: 328000
Packet address request from CPU: 365248
Packet address request from CPU: 234816
Packet address request from CPU: 13184
Packet address request from CPU: 13824
Packet address request from CPU: 14016
Packet address request from CPU: 125760
Packet address request from CPU: 243072
Packet address request from CPU: 371200
Packet address request from CPU: 360960
Packet address request from CPU: 234560
Packet address request from CPU: 324992
Packet address request from CPU: 311744
Packet address request from CPU: 371264
Packet address request from CPU: 365824
Packet address request from CPU: 328064
Packet address request from CPU: 240192
Packet address request from CPU: 357568
Packet address request from CPU: 361600
Packet address request from CPU: 236352
Packet address request from CPU: 326528
Packet address request from CPU: 353920
Packet address request from CPU: 361920
Packet address request from CPU: 361984
Packet address request from CPU: 235456
Packet address request from CPU: 353984
Packet address request from CPU: 328128
Packet address request from CPU: 243520
Packet address request from CPU: 336064
Packet address request from CPU: 362112
Packet address request from CPU: 362176
Packet address request from CPU: 325376
Packet address request from CPU: 312704
Packet address request from CPU: 314880
Packet address request from CPU: 367296
Packet address request from CPU: 234240
Packet address request from CPU: 14144
Packet address request from CPU: 318016
Packet address request from CPU: 364224
Packet address request from CPU: 896
Packet address request from CPU: 233088
Packet address request from CPU: 328192
Packet address request from CPU: 347648
Packet address request from CPU: 242176
Packet address request from CPU: 348288
Packet address request from CPU: 364288
Packet address request from CPU: 235968
Packet address request from CPU: 324224
Packet address request from CPU: 309952
Packet address request from CPU: 244096
Packet address request from CPU: 342400
Packet address request from CPU: 306304
Packet address request from CPU: 234432
Packet address request from CPU: 325824
Packet address request from CPU: 313792
Packet address request from CPU: 328256
Packet address request from CPU: 241600
Packet address request from CPU: 374592
Packet address request from CPU: 303296
Packet address request from CPU: 323712
Packet address request from CPU: 308864
Packet address request from CPU: 241024
Packet address request from CPU: 301824
Packet address request from CPU: 303488
Packet address request from CPU: 236096
Packet address request from CPU: 237120
Packet address request from CPU: 307712
Packet address request from CPU: 328320
Packet address request from CPU: 243712
Packet address request from CPU: 338048
Packet address request from CPU: 304384
Packet address request from CPU: 325504
Packet address request from CPU: 313024
Packet address request from CPU: 317184
Packet address request from CPU: 236032
Packet address request from CPU: 244032
Packet address request from CPU: 341696
Packet address request from CPU: 325760
Packet address request from CPU: 313664
Packet address request from CPU: 328384
Packet address request from CPU: 380864
Packet address request from CPU: 305152
Packet address request from CPU: 235712
Packet address request from CPU: 324160
Packet address request from CPU: 352384
Packet address request from CPU: 305280
Packet address request from CPU: 305344
Packet address request from CPU: 236160
Packet address request from CPU: 236608
Packet address request from CPU: 327040
Packet address request from CPU: 384768
Packet address request from CPU: 305600
Packet address request from CPU: 326272
Packet address request from CPU: 314688
Packet address request from CPU: 328448
Packet address request from CPU: 244480
Packet address request from CPU: 384448
Packet address request from CPU: 306240
Packet address request from CPU: 326208
Packet address request from CPU: 314624
Packet address request from CPU: 242240
Packet address request from CPU: 349056
Packet address request from CPU: 310080
Packet address request from CPU: 328512
Packet address request from CPU: 240512
Packet address request from CPU: 352640
Packet address request from CPU: 306368
Packet address request from CPU: 327104
Packet address request from CPU: 316672
Packet address request from CPU: 388544
Packet address request from CPU: 324544
Packet address request from CPU: 310848
Packet address request from CPU: 243584
Packet address request from CPU: 336256
Packet address request from CPU: 306688
Packet address request from CPU: 312768
Packet address request from CPU: 328576
Packet address request from CPU: 342464
Packet address request from CPU: 307008
Packet address request from CPU: 242304
Packet address request from CPU: 349824
Packet address request from CPU: 385664
Packet address request from CPU: 385728
Packet address request from CPU: 324288
Packet address request from CPU: 310208
Packet address request from CPU: 244288
Packet address request from CPU: 381504
Packet address request from CPU: 386048
Packet address request from CPU: 326016
Packet address request from CPU: 314112
Packet address request from CPU: 328640
Packet address request from CPU: 241728
Packet address request from CPU: 375488
Packet address request from CPU: 386368
Packet address request from CPU: 323776
Packet address request from CPU: 309056
Packet address request from CPU: 337344
Packet address request from CPU: 386432
Packet address request from CPU: 235264
Packet address request from CPU: 328704
Packet address request from CPU: 352256
Packet address request from CPU: 386944
Packet address request from CPU: 234304
Packet address request from CPU: 233280
Packet address request from CPU: 314944
Packet address request from CPU: 387328
Packet address request from CPU: 56576
Packet address request from CPU: 242112
Packet address request from CPU: 380736
Packet address request from CPU: 387392
Packet address request from CPU: 235072
Packet address request from CPU: 309888
Packet address request from CPU: 328768
Packet address request from CPU: 243776
Packet address request from CPU: 339008
Packet address request from CPU: 387456
Packet address request from CPU: 325568
Packet address request from CPU: 313216
Packet address request from CPU: 240704
Packet address request from CPU: 354880
Packet address request from CPU: 387520
Packet address request from CPU: 236800
Packet address request from CPU: 327424
Packet address request from CPU: 242816
Packet address request from CPU: 319296
Packet address request from CPU: 387584
Packet address request from CPU: 235136
Packet address request from CPU: 324800
Packet address request from CPU: 311296
Packet address request from CPU: 328832
Packet address request from CPU: 241536
Packet address request from CPU: 373312
Packet address request from CPU: 388096
Packet address request from CPU: 323584
Packet address request from CPU: 308672
Packet address request from CPU: 243968
Packet address request from CPU: 341184
Packet address request from CPU: 388416
Packet address request from CPU: 313536
Packet address request from CPU: 313600
Packet address request from CPU: 341248
Packet address request from CPU: 328896
Packet address request from CPU: 319360
Packet address request from CPU: 388928
Packet address request from CPU: 233344
Packet address request from CPU: 242688
Packet address request from CPU: 317760
Packet address request from CPU: 365632
Packet address request from CPU: 311040
Packet address request from CPU: 241152
Packet address request from CPU: 344640
Packet address request from CPU: 366848
Packet address request from CPU: 235200
Packet address request from CPU: 237312
Packet address request from CPU: 307968
Packet address request from CPU: 328960
Packet address request from CPU: 384704
Packet address request from CPU: 361792
Packet address request from CPU: 319168
Packet address request from CPU: 367488
Packet address request from CPU: 311232
Packet address request from CPU: 242880
Packet address request from CPU: 368832
Packet address request from CPU: 367808
Packet address request from CPU: 311360
Packet address request from CPU: 329024
Packet address request from CPU: 241088
Packet address request from CPU: 302528
Packet address request from CPU: 367936
Packet address request from CPU: 368000
Packet address request from CPU: 237184
Packet address request from CPU: 307776
Packet address request from CPU: 307840
Packet address request from CPU: 302592
Packet address request from CPU: 371392
Packet address request from CPU: 237696
Packet address request from CPU: 325056
Packet address request from CPU: 311808
Packet address request from CPU: 371456
Packet address request from CPU: 329088
Packet address request from CPU: 244224
Packet address request from CPU: 381120
Packet address request from CPU: 238080
Packet address request from CPU: 235840
Packet address request from CPU: 325952
Packet address request from CPU: 314048
Packet address request from CPU: 243136
Packet address request from CPU: 372416
Packet address request from CPU: 362752
Packet address request from CPU: 362816
Packet address request from CPU: 311936
Packet address request from CPU: 243008
Packet address request from CPU: 370816
Packet address request from CPU: 239104
Packet address request from CPU: 324928
Packet address request from CPU: 311680
Packet address request from CPU: 329152
Packet address request from CPU: 363136
Packet address request from CPU: 235328
Packet address request from CPU: 14080
Packet address request from CPU: 316992
Packet address request from CPU: 239488
Packet address request from CPU: 318400
Packet address request from CPU: 364416
Packet address request from CPU: 324736
Packet address request from CPU: 329216
Packet address request from CPU: 65024
Packet address request from CPU: 65088
Packet address request from CPU: 65152
Packet address request from CPU: 67264
Packet address request from CPU: 65216
Packet address request from CPU: 241664
Packet address request from CPU: 374976
Packet address request from CPU: 304704
Packet address request from CPU: 308928
Packet address request from CPU: 226688
Packet address request from CPU: 329280
Packet address request from CPU: 240768
Packet address request from CPU: 355968
Packet address request from CPU: 365184
Packet address request from CPU: 236864
Packet address request from CPU: 327616
Packet address request from CPU: 63744
Packet address request from CPU: 62848
Packet address request from CPU: 62720
Packet address request from CPU: 329344
Packet address request from CPU: 254016
Packet address request from CPU: 329408
Packet address request from CPU: 329472
Packet address request from CPU: 329536
Packet address request from CPU: 329600
Packet address request from CPU: 62784
Packet address request from CPU: 391808
Packet address request from CPU: 391872
Packet address request from CPU: 394240
Packet address request from CPU: 394304
Packet address request from CPU: 399104
Packet address request from CPU: 405120
Packet address request from CPU: 405184
Packet address request from CPU: 406016
Packet address request from CPU: 405248
Packet address request from CPU: 394368
Packet address request from CPU: 410368
Packet address request from CPU: 417088
Packet address request from CPU: 417152
Packet address request from CPU: 417216
Packet address request from CPU: 419648
Packet address request from CPU: 419712
Packet address request from CPU: 420608
Packet address request from CPU: 394432
Packet address request from CPU: 394496
Packet address request from CPU: 394560
Packet address request from CPU: 406080
Packet address request from CPU: 389568
Packet address request from CPU: 389632
Packet address request from CPU: 64704
Packet address request from CPU: 64768
Packet address request from CPU: 28928
Packet address request from CPU: 93568
Packet address request from CPU: 93632
Packet address request from CPU: 93696
Packet address request from CPU: 8192
Packet address request from CPU: 64256
Packet address request from CPU: 177024
Packet address request from CPU: 768
Packet address request from CPU: 177472
Packet address request from CPU: 8128
Packet address request from CPU: 1152
Packet address request from CPU: 64192
Packet address request from CPU: 318080
Packet address request from CPU: 64576
Packet address request from CPU: 423104
Packet address request from CPU: 8256
Packet address request from CPU: 64640
Packet address request from CPU: 1216
Packet address request from CPU: 1280
Packet address request from CPU: 1344
Packet address request from CPU: 28736
Packet address request from CPU: 91712
Packet address request from CPU: 91776
Packet address request from CPU: 91840
Packet address request from CPU: 91904
Packet address request from CPU: 91968
Packet address request from CPU: 92032
Packet address request from CPU: 247424
Packet address request from CPU: 247488
Packet address request from CPU: 92160
Packet address request from CPU: 28800
Packet address request from CPU: 28864
Packet address request from CPU: 175552
Packet address request from CPU: 129088
Packet address request from CPU: 129152
Packet address request from CPU: 13952
Packet address request from CPU: 303872
Packet address request from CPU: 323648
Packet address request from CPU: 308800
Packet address request from CPU: 374080
Packet address request from CPU: 360640
Packet address request from CPU: 301952
Packet address request from CPU: 366656
Packet address request from CPU: 112896
Packet address request from CPU: 124032
Packet address request from CPU: 15424
Packet address request from CPU: 79744
Packet address request from CPU: 79808
Packet address request from CPU: 79872
Packet address request from CPU: 79488
Packet address request from CPU: 79616
Packet address request from CPU: 427392
Packet address request from CPU: 427456
Packet address request from CPU: 427712
Packet address request from CPU: 254080
Packet address request from CPU: 427776
[...]
Packet address request from CPU: 382912
Packet address request from CPU: 382976
Packet address request from CPU: 383040
Packet address request from CPU: 383104
Packet address request from CPU: 383168
Packet address request from CPU: 383232
Packet address request from CPU: 383296
Packet address request from CPU: 383360
Packet address request from CPU: 383424
Packet address request from CPU: 383488
Packet address request from CPU: 383552
Packet address request from CPU: 383616
Packet address request from CPU: 383680
Packet address request from CPU: 383744
Packet address request from CPU: 383808
Packet address request from CPU: 383872
Packet address request from CPU: 314560
Packet address request from CPU: 383936
Packet address request from CPU: 384000
Packet address request from CPU: 384064
Packet address request from CPU: 384128
Packet address request from CPU: 384192
Packet address request from CPU: 384256
Packet address request from CPU: 384320
Packet address request from CPU: 384384
Packet address request from CPU: 384512
Packet address request from CPU: 384576
Packet address request from CPU: 384640
Packet address request from CPU: 314688
Packet address request from CPU: 384832
Packet address request from CPU: 384896
Packet address request from CPU: 384960
Packet address request from CPU: 402496
Packet address request from CPU: 402752
Packet address request from CPU: 402560
Packet address request from CPU: 521792
Packet address request from CPU: 521472
Packet address request from CPU: 521536
Packet address request from CPU: 521664
Packet address request from CPU: 522624
Packet address request from CPU: 522496
Packet address request from CPU: 531328
Packet address request from CPU: 531392
Packet address request from CPU: 432064
Packet address request from CPU: 531520
Packet address request from CPU: 531648
Packet address request from CPU: 531712
Packet address request from CPU: 533248
Packet address request from CPU: 535168
Packet address request from CPU: 256896
Packet address request from CPU: 535232
Packet address request from CPU: 256960
Packet address request from CPU: 257024
Packet address request from CPU: 257088
Packet address request from CPU: 257152
Packet address request from CPU: 257216
Packet address request from CPU: 257280
Packet address request from CPU: 257344
Packet address request from CPU: 257408
Packet address request from CPU: 257472
Packet address request from CPU: 257536
Packet address request from CPU: 257600
Packet address request from CPU: 257664
Packet address request from CPU: 257728
Packet address request from CPU: 257792
Packet address request from CPU: 257856
Packet address request from CPU: 257920
Packet address request from CPU: 257984
Packet address request from CPU: 225280
Packet address request from CPU: 225344
Packet address request from CPU: 225408
Packet address request from CPU: 225472
Packet address request from CPU: 225536
Packet address request from CPU: 225600
Packet address request from CPU: 225664
Packet address request from CPU: 225728
Packet address request from CPU: 225792
Packet address request from CPU: 225856
Packet address request from CPU: 225920
Packet address request from CPU: 225984
Packet address request from CPU: 226048
Packet address request from CPU: 226112
Packet address request from CPU: 535872
Packet address request from CPU: 535936
Packet address request from CPU: 256832
Packet address request from CPU: 531776
Packet address request from CPU: 531840
Packet address request from CPU: 531904
Packet address request from CPU: 536960
Packet address request from CPU: 537344
Packet address request from CPU: 537408
Packet address request from CPU: 537024
Packet address request from CPU: 537088
Packet address request from CPU: 537152
Packet address request from CPU: 538432
Packet address request from CPU: 528960
Packet address request from CPU: 529024
Packet address request from CPU: 529088
Packet address request from CPU: 529152
Packet address request from CPU: 529856
Packet address request from CPU: 529920
Packet address request from CPU: 530240
Packet address request from CPU: 529984
Packet address request from CPU: 543040
Packet address request from CPU: 548736
Packet address request from CPU: 433984
Packet address request from CPU: 548800
Packet address request from CPU: 548608
Packet address request from CPU: 548864
Packet address request from CPU: 254336
Packet address request from CPU: 530048
Packet address request from CPU: 530816
Packet address request from CPU: 530368
Packet address request from CPU: 530432
Packet address request from CPU: 530496
Packet address request from CPU: 530560
Packet address request from CPU: 530624
Packet address request from CPU: 552960
Packet address request from CPU: 529280
Packet address request from CPU: 529344
Packet address request from CPU: 557056
Packet address request from CPU: 537664
Packet address request from CPU: 532160
Packet address request from CPU: 522560
Packet address request from CPU: 504256
Packet address request from CPU: 500992
Packet address request from CPU: 497600
Packet address request from CPU: 497664
Packet address request from CPU: 497856
Packet address request from CPU: 496512
Packet address request from CPU: 492352
Packet address request from CPU: 492224
Packet address request from CPU: 501312
Packet address request from CPU: 501376
Packet address request from CPU: 501440
Packet address request from CPU: 492096
Packet address request from CPU: 484352
Packet address request from CPU: 484416
Packet address request from CPU: 484544
Packet address request from CPU: 484608
Packet address request from CPU: 484672
Packet address request from CPU: 484736
Packet address request from CPU: 562432
Packet address request from CPU: 484800
Packet address request from CPU: 562240
Packet address request from CPU: 484864
Packet address request from CPU: 484928
Packet address request from CPU: 486208
Packet address request from CPU: 567168
Packet address request from CPU: 567296
Packet address request from CPU: 486272
Packet address request from CPU: 565696
Packet address request from CPU: 565760
Packet address request from CPU: 565504
Packet address request from CPU: 571072
Packet address request from CPU: 571200
Packet address request from CPU: 577408
Packet address request from CPU: 571264
Packet address request from CPU: 565568
Packet address request from CPU: 565632
Packet address request from CPU: 567488
Packet address request from CPU: 486400
Packet address request from CPU: 486464
Packet address request from CPU: 486528
Packet address request from CPU: 566272
Packet address request from CPU: 566464
Packet address request from CPU: 486592
Packet address request from CPU: 565376
Packet address request from CPU: 565440
Packet address request from CPU: 567360
Packet address request from CPU: 486720
Packet address request from CPU: 486848
Packet address request from CPU: 486912
Packet address request from CPU: 492288
Packet address request from CPU: 390144
Packet address request from CPU: 390208
Packet address request from CPU: 390272
Packet address request from CPU: 486976
Packet address request from CPU: 485504
Packet address request from CPU: 485568
Packet address request from CPU: 485632
Packet address request from CPU: 553024
Packet address request from CPU: 485696
Packet address request from CPU: 2560
Packet address request from CPU: 492480
Packet address request from CPU: 492544
Packet address request from CPU: 492608
Packet address request from CPU: 492672
Packet address request from CPU: 496576
Packet address request from CPU: 496640
Packet address request from CPU: 510848
Packet address request from CPU: 510976
Packet address request from CPU: 578432
Number of elements: 3000, Number of cache blocks: 4, Number of iterations: 1
Packet address request from CPU: 578496
Packet address request from CPU: 510912
Packet address request from CPU: 496704
Packet address request from CPU: 496768
Packet address request from CPU: 485760
Packet address request from CPU: 484160
Packet address request from CPU: 484224
Packet address request from CPU: 516672
Packet address request from CPU: 516736
Packet address request from CPU: 516544
Packet address request from CPU: 537728
Packet address request from CPU: 537792
Packet address request from CPU: 538496
Packet address request from CPU: 585472
Packet address request from CPU: 516608
Packet address request from CPU: 2048
Packet address request from CPU: 557120
Packet address request from CPU: 557184
Packet address request from CPU: 557248
Packet address request from CPU: 557312
Packet address request from CPU: 557376
Packet address request from CPU: 557440
Packet address request from CPU: 557504
Packet address request from CPU: 557568
Packet address request from CPU: 557632
Packet address request from CPU: 557696
Packet address request from CPU: 557760
Packet address request from CPU: 557824
Packet address request from CPU: 557888
Packet address request from CPU: 557952
Packet address request from CPU: 558016
Packet address request from CPU: 558080
Packet address request from CPU: 558144
Packet address request from CPU: 558208
Packet address request from CPU: 558272
Packet address request from CPU: 558336
Packet address request from CPU: 558400
Packet address request from CPU: 558464
Packet address request from CPU: 558528
Packet address request from CPU: 558592
Packet address request from CPU: 558656
Packet address request from CPU: 558720
Packet address request from CPU: 558784
Packet address request from CPU: 558848
Packet address request from CPU: 558912
Packet address request from CPU: 558976
Packet address request from CPU: 559040
Packet address request from CPU: 559104
Packet address request from CPU: 559168
Packet address request from CPU: 559232
Packet address request from CPU: 559296
Packet address request from CPU: 559360
Packet address request from CPU: 559424
Packet address request from CPU: 559488
Packet address request from CPU: 559552
Packet address request from CPU: 559616
Packet address request from CPU: 559680
Packet address request from CPU: 559744
Packet address request from CPU: 559808
Packet address request from CPU: 559872
Packet address request from CPU: 559936
Packet address request from CPU: 560000
Packet address request from CPU: 560064
Packet address request from CPU: 560128
Packet address request from CPU: 560192
Packet address request from CPU: 560256
Packet address request from CPU: 560320
Packet address request from CPU: 560384
Packet address request from CPU: 560448
Packet address request from CPU: 560512
Packet address request from CPU: 560576
Packet address request from CPU: 560640
Packet address request from CPU: 560704
Packet address request from CPU: 560768
Packet address request from CPU: 560832
Packet address request from CPU: 560896
Packet address request from CPU: 560960
Packet address request from CPU: 561024
Packet address request from CPU: 561088
Packet address request from CPU: 585728
Packet address request from CPU: 585792
Packet address request from CPU: 585856
Packet address request from CPU: 585920
Packet address request from CPU: 585984
Packet address request from CPU: 586048
Packet address request from CPU: 586112
Packet address request from CPU: 586176
Packet address request from CPU: 586240
Packet address request from CPU: 586304
Packet address request from CPU: 586368
Packet address request from CPU: 586432
Packet address request from CPU: 586496
Packet address request from CPU: 586560
Packet address request from CPU: 586624
Packet address request from CPU: 586688
Packet address request from CPU: 586752
Packet address request from CPU: 586816
Packet address request from CPU: 586880
Packet address request from CPU: 586944
Packet address request from CPU: 587008
Packet address request from CPU: 587072
Packet address request from CPU: 587136
Packet address request from CPU: 587200
Packet address request from CPU: 587264
Packet address request from CPU: 587328
Packet address request from CPU: 587392
Packet address request from CPU: 587456
Packet address request from CPU: 587520
Packet address request from CPU: 587584
Packet address request from CPU: 587648
Packet address request from CPU: 587712
Packet address request from CPU: 587776
Packet address request from CPU: 587840
Packet address request from CPU: 587904
Packet address request from CPU: 587968
Packet address request from CPU: 588032
Packet address request from CPU: 588096
Packet address request from CPU: 588160
Packet address request from CPU: 588224
Packet address request from CPU: 588288
Packet address request from CPU: 588352
Packet address request from CPU: 588416
Packet address request from CPU: 588480
Packet address request from CPU: 588544
Packet address request from CPU: 588608
Packet address request from CPU: 588672
Packet address request from CPU: 588736
Packet address request from CPU: 588800
Packet address request from CPU: 588864
Packet address request from CPU: 588928
Packet address request from CPU: 588992
Packet address request from CPU: 589056
Packet address request from CPU: 589120
Packet address request from CPU: 589184
Packet address request from CPU: 589248
Packet address request from CPU: 589312
Packet address request from CPU: 589376
Packet address request from CPU: 589440
Packet address request from CPU: 589504
Packet address request from CPU: 589568
Packet address request from CPU: 589632
Packet address request from CPU: 589696
Packet address request from CPU: 589760
Packet address request from CPU: 581632
Packet address request from CPU: 581696
Packet address request from CPU: 581760
Packet address request from CPU: 581824
Packet address request from CPU: 581888
Packet address request from CPU: 581952
Packet address request from CPU: 582016
Packet address request from CPU: 582080
Packet address request from CPU: 582144
Packet address request from CPU: 582208
Packet address request from CPU: 582272
Packet address request from CPU: 582336
Packet address request from CPU: 582400
Packet address request from CPU: 582464
Packet address request from CPU: 582528
Packet address request from CPU: 582592
Packet address request from CPU: 582656
Packet address request from CPU: 582720
Packet address request from CPU: 582784
Packet address request from CPU: 582848
Packet address request from CPU: 582912
Packet address request from CPU: 582976
Packet address request from CPU: 583040
Packet address request from CPU: 583104
Packet address request from CPU: 583168
Packet address request from CPU: 583232
Packet address request from CPU: 583296
Packet address request from CPU: 583360
Packet address request from CPU: 583424
Packet address request from CPU: 583488
Packet address request from CPU: 583552
Packet address request from CPU: 583616
Packet address request from CPU: 583680
Packet address request from CPU: 583744
Packet address request from CPU: 583808
Packet address request from CPU: 583872
Packet address request from CPU: 583936
Packet address request from CPU: 584000
Packet address request from CPU: 584064
Packet address request from CPU: 584128
Packet address request from CPU: 584192
Packet address request from CPU: 584256
Packet address request from CPU: 584320
Packet address request from CPU: 584384
Packet address request from CPU: 584448
Packet address request from CPU: 584512
Packet address request from CPU: 584576
Packet address request from CPU: 584640
Packet address request from CPU: 584704
Packet address request from CPU: 584768
Packet address request from CPU: 584832
Packet address request from CPU: 584896
Packet address request from CPU: 584960
Packet address request from CPU: 585024
Packet address request from CPU: 585088
Packet address request from CPU: 585152
Packet address request from CPU: 585216
Packet address request from CPU: 585280
Packet address request from CPU: 585344
Packet address request from CPU: 585408
Packet address request from CPU: 321728
Packet address request from CPU: 240384
Packet address request from CPU: 444608
Packet address request from CPU: 444672
Packet address request from CPU: 431232
Packet address request from CPU: 445632
Packet address request from CPU: 445696
Packet address request from CPU: 445760
Packet address request from CPU: 254144
Packet address request from CPU: 254208
Packet address request from CPU: 445824
Packet address request from CPU: 445504
Packet address request from CPU: 445568
Packet address request from CPU: 445888
Packet address request from CPU: 444736
Packet address request from CPU: 2176
Packet address request from CPU: 242368
Packet address request from CPU: 446272
Packet address request from CPU: 445120
Packet address request from CPU: 445184
Packet address request from CPU: 445248
Packet address request from CPU: 2112
Packet address request from CPU: 2240
Packet address request from CPU: 484032
Sum: 4 
Packet address request from CPU: 127488
Packet address request from CPU: 127552
Packet address request from CPU: 127616
Packet address request from CPU: 361856
Packet address request from CPU: 127680
Packet address request from CPU: 517440
Packet address request from CPU: 517504
Packet address request from CPU: 593216
Packet address request from CPU: 593280
Packet address request from CPU: 593600
Packet address request from CPU: 594560
Packet address request from CPU: 594624
Packet address request from CPU: 593664
Packet address request from CPU: 596160
Packet address request from CPU: 596224
Packet address request from CPU: 593728
Packet address request from CPU: 593856
Packet address request from CPU: 593984
Packet address request from CPU: 594048
Packet address request from CPU: 596352
Packet address request from CPU: 596416
Packet address request from CPU: 600128
Packet address request from CPU: 600192
Packet address request from CPU: 595008
Packet address request from CPU: 595072
Packet address request from CPU: 593536
Packet address request from CPU: 442432
Packet address request from CPU: 462592
Packet address request from CPU: 443840
Packet address request from CPU: 443904
Packet address request from CPU: 462656
Packet address request from CPU: 462784
Packet address request from CPU: 442368
Packet address request from CPU: 80576
Packet address request from CPU: 80640
Packet address request from CPU: 80704
Packet address request from CPU: 80768
Packet address request from CPU: 80832
Packet address request from CPU: 80896
Packet address request from CPU: 80960
Packet address request from CPU: 81024
Packet address request from CPU: 81088
Packet address request from CPU: 81152
Packet address request from CPU: 81600
Packet address request from CPU: 81664
Packet address request from CPU: 81280
Packet address request from CPU: 81344
Packet address request from CPU: 81408
Packet address request from CPU: 81472
Packet address request from CPU: 81536
Packet address request from CPU: 81792
Packet address request from CPU: 462720
Packet address request from CPU: 602880
Packet address request from CPU: 602112
Packet address request from CPU: 602176
Packet address request from CPU: 602688
Packet address request from CPU: 602752
Packet address request from CPU: 431936
Packet address request from CPU: 602304
Packet address request from CPU: 602368
Packet address request from CPU: 602432
Packet address request from CPU: 602496
Packet address request from CPU: 226624
Packet address request from CPU: 602624
Packet address request from CPU: 256256
Packet address request from CPU: 602944
Packet address request from CPU: 603072
Packet address request from CPU: 603136
Packet address request from CPU: 603008
Packet address request from CPU: 508992
Packet address request from CPU: 502080
Packet address request from CPU: 508800
Packet address request from CPU: 508864
Packet address request from CPU: 502208
Packet address request from CPU: 502144
Packet address request from CPU: 603200
Packet address request from CPU: 603264
Packet address request from CPU: 256192
