Global frequency set at 1000000000000 ticks per second
Hey, I am a DBICache component + Deepanjali
Hey, I am a RDBI component
Number of sets in DBI: 32Number of bits required to index into DBI: 5
gem5 Simulator System.  https://www.gem5.org
gem5 is copyrighted software; use the --copyright option for details.

gem5 version 22.0.0.2
gem5 compiled Mar 14 2023 06:49:56
gem5 started Mar 14 2023 06:52:06
gem5 executing on v100-gpu-4, pid 1751
command line: build/X86/gem5.opt --stats-file =dbi.txt configs/learning_gem5/DebugDBI/DBICache/config.py test-benchmark/test -n 3000 -k 4 -t 1

Beginning simulation!
Packet address request from CPU: 15360
Packet address request from CPU in binary: 0000000000000000000000000000000000000000000000000011110000000000
Region DBI tag of the packet address: 1
regTag in binary: 0000000000000000000000000000000000000000000000000000000000000001
Packet address request from CPU: 183808
Packet address request from CPU in binary: 0000000000000000000000000000000000000000000000101100111000000000
Region DBI tag of the packet address: 22
regTag in binary: 0000000000000000000000000000000000000000000000000000000000010110
Packet address request from CPU: 18816
Packet address request from CPU in binary: 0000000000000000000000000000000000000000000000000100100110000000
Region DBI tag of the packet address: 2
regTag in binary: 0000000000000000000000000000000000000000000000000000000000000010
Packet address request from CPU: 183744
Packet address request from CPU in binary: 0000000000000000000000000000000000000000000000101100110111000000
Region DBI tag of the packet address: 22
regTag in binary: 0000000000000000000000000000000000000000000000000000000000010110
Packet address request from CPU: 18880
Packet address request from CPU in binary: 0000000000000000000000000000000000000000000000000100100111000000
Region DBI tag of the packet address: 2
regTag in binary: 0000000000000000000000000000000000000000000000000000000000000010
Packet address request from CPU: 171072
Packet address request from CPU in binary: 0000000000000000000000000000000000000000000000101001110001000000
Region DBI tag of the packet address: 20
regTag in binary: 0000000000000000000000000000000000000000000000000000000000010100
Packet address request from CPU: 171648
Packet address request from CPU in binary: 0000000000000000000000000000000000000000000000101001111010000000
Region DBI tag of the packet address: 20
regTag in binary: 0000000000000000000000000000000000000000000000000000000000010100
Packet address request from CPU: 172032
Packet address request from CPU in binary: 0000000000000000000000000000000000000000000000101010000000000000
Region DBI tag of the packet address: 21
regTag in binary: 0000000000000000000000000000000000000000000000000000000000010101
Packet address request from CPU: 174528
Packet address request from CPU in binary: 0000000000000000000000000000000000000000000000101010100111000000
Region DBI tag of the packet address: 21
regTag in binary: 0000000000000000000000000000000000000000000000000000000000010101
Packet address request from CPU: 18944
Packet address request from CPU in binary: 0000000000000000000000000000000000000000000000000100101000000000
Region DBI tag of the packet address: 2
regTag in binary: 0000000000000000000000000000000000000000000000000000000000000010
Packet address request from CPU: 19008
Packet address request from CPU in binary: 0000000000000000000000000000000000000000000000000100101001000000
Region DBI tag of the packet address: 2
regTag in binary: 0000000000000000000000000000000000000000000000000000000000000010
Packet address request from CPU: 174720
Packet address request from CPU in binary: 0000000000000000000000000000000000000000000000101010101010000000
Region DBI tag of the packet address: 21
regTag in binary: 0000000000000000000000000000000000000000000000000000000000010101
Packet address request from CPU: 174592
Packet address request from CPU in binary: 0000000000000000000000000000000000000000000000101010101000000000
Region DBI tag of the packet address: 21
regTag in binary: 0000000000000000000000000000000000000000000000000000000000010101
Packet address request from CPU: 19520
Packet address request from CPU in binary: 0000000000000000000000000000000000000000000000000100110001000000
Region DBI tag of the packet address: 2
regTag in binary: 0000000000000000000000000000000000000000000000000000000000000010
Packet address request from CPU: 19584
Packet address request from CPU in binary: 0000000000000000000000000000000000000000000000000100110010000000
Region DBI tag of the packet address: 2
regTag in binary: 0000000000000000000000000000000000000000000000000000000000000010
Packet address request from CPU: 19904
Packet address request from CPU in binary: 0000000000000000000000000000000000000000000000000100110111000000
Region DBI tag of the packet address: 2
regTag in binary: 0000000000000000000000000000000000000000000000000000000000000010
Packet address request from CPU: 175168
Packet address request from CPU in binary: 0000000000000000000000000000000000000000000000101010110001000000
Region DBI tag of the packet address: 21
regTag in binary: 0000000000000000000000000000000000000000000000000000000000010101
Packet address request from CPU: 174656
Packet address request from CPU in binary: 0000000000000000000000000000000000000000000000101010101001000000
Region DBI tag of the packet address: 21
regTag in binary: 0000000000000000000000000000000000000000000000000000000000010101
Packet address request from CPU: 171712
Packet address request from CPU in binary: 0000000000000000000000000000000000000000000000101001111011000000
Region DBI tag of the packet address: 20
regTag in binary: 0000000000000000000000000000000000000000000000000000000000010100
Packet address request from CPU: 171776
Packet address request from CPU in binary: 0000000000000000000000000000000000000000000000101001111100000000
Region DBI tag of the packet address: 20
regTag in binary: 0000000000000000000000000000000000000000000000000000000000010100
Packet address request from CPU: 174784
Packet address request from CPU in binary: 0000000000000000000000000000000000000000000000101010101011000000
Region DBI tag of the packet address: 21
regTag in binary: 0000000000000000000000000000000000000000000000000000000000010101
Packet address request from CPU: 171840
Packet address request from CPU in binary: 0000000000000000000000000000000000000000000000101001111101000000
Region DBI tag of the packet address: 20
regTag in binary: 0000000000000000000000000000000000000000000000000000000000010100
Packet address request from CPU: 19072
Packet address request from CPU in binary: 0000000000000000000000000000000000000000000000000100101010000000
Region DBI tag of the packet address: 2
regTag in binary: 0000000000000000000000000000000000000000000000000000000000000010
Packet address request from CPU: 174912
Packet address request from CPU in binary: 0000000000000000000000000000000000000000000000101010101101000000
Region DBI tag of the packet address: 21
regTag in binary: 0000000000000000000000000000000000000000000000000000000000010101
Packet address request from CPU: 174848
Packet address request from CPU in binary: 0000000000000000000000000000000000000000000000101010101100000000
Region DBI tag of the packet address: 21
regTag in binary: 0000000000000000000000000000000000000000000000000000000000010101
Packet address request from CPU: 171904
Packet address request from CPU in binary: 0000000000000000000000000000000000000000000000101001111110000000
Region DBI tag of the packet address: 20
regTag in binary: 0000000000000000000000000000000000000000000000000000000000010100
Packet address request from CPU: 174976
Packet address request from CPU in binary: 0000000000000000000000000000000000000000000000101010101110000000
Region DBI tag of the packet address: 21
regTag in binary: 0000000000000000000000000000000000000000000000000000000000010101
Packet address request from CPU: 19136
Packet address request from CPU in binary: 0000000000000000000000000000000000000000000000000100101011000000
Region DBI tag of the packet address: 2
regTag in binary: 0000000000000000000000000000000000000000000000000000000000000010
Packet address request from CPU: 19200
Packet address request from CPU in binary: 0000000000000000000000000000000000000000000000000100101100000000
Region DBI tag of the packet address: 2
regTag in binary: 0000000000000000000000000000000000000000000000000000000000000010
Packet address request from CPU: 19264
Packet address request from CPU in binary: 0000000000000000000000000000000000000000000000000100101101000000
Region DBI tag of the packet address: 2
regTag in binary: 0000000000000000000000000000000000000000000000000000000000000010
Packet address request from CPU: 19328
Packet address request from CPU in binary: 0000000000000000000000000000000000000000000000000100101110000000
Region DBI tag of the packet address: 2
regTag in binary: 0000000000000000000000000000000000000000000000000000000000000010
Packet address request from CPU: 19648
Packet address request from CPU in binary: 0000000000000000000000000000000000000000000000000100110011000000
Region DBI tag of the packet address: 2
regTag in binary: 0000000000000000000000000000000000000000000000000000000000000010
Packet address request from CPU: 19712
Packet address request from CPU in binary: 0000000000000000000000000000000000000000000000000100110100000000
Region DBI tag of the packet address: 2
regTag in binary: 0000000000000000000000000000000000000000000000000000000000000010
Packet address request from CPU: 14528
Packet address request from CPU in binary: 0000000000000000000000000000000000000000000000000011100011000000
Region DBI tag of the packet address: 1
regTag in binary: 0000000000000000000000000000000000000000000000000000000000000001
Packet address request from CPU: 19776
Packet address request from CPU in binary: 0000000000000000000000000000000000000000000000000100110101000000
Region DBI tag of the packet address: 2
regTag in binary: 0000000000000000000000000000000000000000000000000000000000000010
Packet address request from CPU: 171392
Packet address request from CPU in binary: 0000000000000000000000000000000000000000000000101001110110000000
Region DBI tag of the packet address: 20
regTag in binary: 0000000000000000000000000000000000000000000000000000000000010100
Packet address request from CPU: 14592
Packet address request from CPU in binary: 0000000000000000000000000000000000000000000000000011100100000000
Region DBI tag of the packet address: 1
regTag in binary: 0000000000000000000000000000000000000000000000000000000000000001
Packet address request from CPU: 171456
Packet address request from CPU in binary: 0000000000000000000000000000000000000000000000101001110111000000
Region DBI tag of the packet address: 20
regTag in binary: 0000000000000000000000000000000000000000000000000000000000010100
Packet address request from CPU: 14656
Packet address request from CPU in binary: 0000000000000000000000000000000000000000000000000011100101000000
Region DBI tag of the packet address: 1
regTag in binary: 0000000000000000000000000000000000000000000000000000000000000001
Packet address request from CPU: 14720
Packet address request from CPU in binary: 0000000000000000000000000000000000000000000000000011100110000000
Region DBI tag of the packet address: 1
regTag in binary: 0000000000000000000000000000000000000000000000000000000000000001
Packet address request from CPU: 14784
Packet address request from CPU in binary: 0000000000000000000000000000000000000000000000000011100111000000
Region DBI tag of the packet address: 1
regTag in binary: 0000000000000000000000000000000000000000000000000000000000000001
Packet address request from CPU: 171520
Packet address request from CPU in binary: 0000000000000000000000000000000000000000000000101001111000000000
Region DBI tag of the packet address: 20
regTag in binary: 0000000000000000000000000000000000000000000000000000000000010100
Packet address request from CPU: 19840
Packet address request from CPU in binary: 0000000000000000000000000000000000000000000000000100110110000000
Region DBI tag of the packet address: 2
regTag in binary: 0000000000000000000000000000000000000000000000000000000000000010
Packet address request from CPU: 13440
Packet address request from CPU in binary: 0000000000000000000000000000000000000000000000000011010010000000
Region DBI tag of the packet address: 1
regTag in binary: 0000000000000000000000000000000000000000000000000000000000000001
Packet address request from CPU: 137152
Packet address request from CPU in binary: 0000000000000000000000000000000000000000000000100001011111000000
Region DBI tag of the packet address: 16
regTag in binary: 0000000000000000000000000000000000000000000000000000000000010000
Packet address request from CPU: 19968
Packet address request from CPU in binary: 0000000000000000000000000000000000000000000000000100111000000000
Region DBI tag of the packet address: 2
regTag in binary: 0000000000000000000000000000000000000000000000000000000000000010
Packet address request from CPU: 171968
Packet address request from CPU in binary: 0000000000000000000000000000000000000000000000101001111111000000
Region DBI tag of the packet address: 20
regTag in binary: 0000000000000000000000000000000000000000000000000000000000010100
Packet address request from CPU: 13312
Packet address request from CPU in binary: 0000000000000000000000000000000000000000000000000011010000000000
Region DBI tag of the packet address: 1
regTag in binary: 0000000000000000000000000000000000000000000000000000000000000001
Packet address request from CPU: 13376
Packet address request from CPU in binary: 0000000000000000000000000000000000000000000000000011010001000000
Region DBI tag of the packet address: 1
regTag in binary: 0000000000000000000000000000000000000000000000000000000000000001
Packet address request from CPU: 14848
Packet address request from CPU in binary: 0000000000000000000000000000000000000000000000000011101000000000
Region DBI tag of the packet address: 1
regTag in binary: 0000000000000000000000000000000000000000000000000000000000000001
Packet address request from CPU: 13760
Packet address request from CPU in binary: 0000000000000000000000000000000000000000000000000011010111000000
Region DBI tag of the packet address: 1
regTag in binary: 0000000000000000000000000000000000000000000000000000000000000001
Packet address request from CPU: 13504
Packet address request from CPU in binary: 0000000000000000000000000000000000000000000000000011010011000000
Region DBI tag of the packet address: 1
regTag in binary: 0000000000000000000000000000000000000000000000000000000000000001
Packet address request from CPU: 13568
Packet address request from CPU in binary: 0000000000000000000000000000000000000000000000000011010100000000
Region DBI tag of the packet address: 1
regTag in binary: 0000000000000000000000000000000000000000000000000000000000000001
Packet address request from CPU: 14912
Packet address request from CPU in binary: 0000000000000000000000000000000000000000000000000011101001000000
Region DBI tag of the packet address: 1
regTag in binary: 0000000000000000000000000000000000000000000000000000000000000001
Packet address request from CPU: 19392
Packet address request from CPU in binary: 0000000000000000000000000000000000000000000000000100101111000000
Region DBI tag of the packet address: 2
regTag in binary: 0000000000000000000000000000000000000000000000000000000000000010
Packet address request from CPU: 175296
Packet address request from CPU in binary: 0000000000000000000000000000000000000000000000101010110011000000
Region DBI tag of the packet address: 21
regTag in binary: 0000000000000000000000000000000000000000000000000000000000010101
Packet address request from CPU: 183680
Packet address request from CPU in binary: 0000000000000000000000000000000000000000000000101100110110000000
Region DBI tag of the packet address: 22
regTag in binary: 0000000000000000000000000000000000000000000000000000000000010110
Packet address request from CPU: 60032
Packet address request from CPU in binary: 0000000000000000000000000000000000000000000000001110101010000000
Region DBI tag of the packet address: 7
regTag in binary: 0000000000000000000000000000000000000000000000000000000000000111
Packet address request from CPU: 12928
Packet address request from CPU in binary: 0000000000000000000000000000000000000000000000000011001010000000
Region DBI tag of the packet address: 1
regTag in binary: 0000000000000000000000000000000000000000000000000000000000000001
Packet address request from CPU: 60096
Packet address request from CPU in binary: 0000000000000000000000000000000000000000000000001110101011000000
Region DBI tag of the packet address: 7
regTag in binary: 0000000000000000000000000000000000000000000000000000000000000111
Packet address request from CPU: 175360
Packet address request from CPU in binary: 0000000000000000000000000000000000000000000000101010110100000000
Region DBI tag of the packet address: 21
regTag in binary: 0000000000000000000000000000000000000000000000000000000000010101
Packet address request from CPU: 19456
Packet address request from CPU in binary: 0000000000000000000000000000000000000000000000000100110000000000
Region DBI tag of the packet address: 2
regTag in binary: 0000000000000000000000000000000000000000000000000000000000000010
Packet address request from CPU: 171584
Packet address request from CPU in binary: 0000000000000000000000000000000000000000000000101001111001000000
Region DBI tag of the packet address: 20
regTag in binary: 0000000000000000000000000000000000000000000000000000000000010100
Packet address request from CPU: 174464
Packet address request from CPU in binary: 0000000000000000000000000000000000000000000000101010100110000000
Region DBI tag of the packet address: 21
regTag in binary: 0000000000000000000000000000000000000000000000000000000000010101
Packet address request from CPU: 116096
Packet address request from CPU in binary: 0000000000000000000000000000000000000000000000011100010110000000
Region DBI tag of the packet address: 14
regTag in binary: 0000000000000000000000000000000000000000000000000000000000001110
Packet address request from CPU: 183616
Packet address request from CPU in binary: 0000000000000000000000000000000000000000000000101100110101000000
Region DBI tag of the packet address: 22
regTag in binary: 0000000000000000000000000000000000000000000000000000000000010110
Packet address request from CPU: 116160
Packet address request from CPU in binary: 0000000000000000000000000000000000000000000000011100010111000000
Region DBI tag of the packet address: 14
regTag in binary: 0000000000000000000000000000000000000000000000000000000000001110
Packet address request from CPU: 171136
Packet address request from CPU in binary: 0000000000000000000000000000000000000000000000101001110010000000
Region DBI tag of the packet address: 20
regTag in binary: 0000000000000000000000000000000000000000000000000000000000010100
Packet address request from CPU: 176384
Packet address request from CPU in binary: 0000000000000000000000000000000000000000000000101011000100000000
Region DBI tag of the packet address: 21
regTag in binary: 0000000000000000000000000000000000000000000000000000000000010101
Packet address request from CPU: 183872
Packet address request from CPU in binary: 0000000000000000000000000000000000000000000000101100111001000000
Region DBI tag of the packet address: 22
regTag in binary: 0000000000000000000000000000000000000000000000000000000000010110
Packet address request from CPU: 116224
Packet address request from CPU in binary: 0000000000000000000000000000000000000000000000011100011000000000
Region DBI tag of the packet address: 14
regTag in binary: 0000000000000000000000000000000000000000000000000000000000001110
Packet address request from CPU: 171264
Packet address request from CPU in binary: 0000000000000000000000000000000000000000000000101001110100000000
Region DBI tag of the packet address: 20
regTag in binary: 0000000000000000000000000000000000000000000000000000000000010100
Packet address request from CPU: 171200
Packet address request from CPU in binary: 0000000000000000000000000000000000000000000000101001110011000000
Region DBI tag of the packet address: 20
regTag in binary: 0000000000000000000000000000000000000000000000000000000000010100
Packet address request from CPU: 116288
Packet address request from CPU in binary: 0000000000000000000000000000000000000000000000011100011001000000
Region DBI tag of the packet address: 14
regTag in binary: 0000000000000000000000000000000000000000000000000000000000001110
Packet address request from CPU: 183552
Packet address request from CPU in binary: 0000000000000000000000000000000000000000000000101100110100000000
Region DBI tag of the packet address: 22
regTag in binary: 0000000000000000000000000000000000000000000000000000000000010110
Packet address request from CPU: 116352
Packet address request from CPU in binary: 0000000000000000000000000000000000000000000000011100011010000000
Region DBI tag of the packet address: 14
regTag in binary: 0000000000000000000000000000000000000000000000000000000000001110
Packet address request from CPU: 116416
Packet address request from CPU in binary: 0000000000000000000000000000000000000000000000011100011011000000
Region DBI tag of the packet address: 14
regTag in binary: 0000000000000000000000000000000000000000000000000000000000001110
Packet address request from CPU: 139648
Packet address request from CPU in binary: 0000000000000000000000000000000000000000000000100010000110000000
Region DBI tag of the packet address: 17
regTag in binary: 0000000000000000000000000000000000000000000000000000000000010001
Packet address request from CPU: 139584
Packet address request from CPU in binary: 0000000000000000000000000000000000000000000000100010000101000000
Region DBI tag of the packet address: 17
regTag in binary: 0000000000000000000000000000000000000000000000000000000000010001
Packet address request from CPU: 116736
Packet address request from CPU in binary: 0000000000000000000000000000000000000000000000011100100000000000
Region DBI tag of the packet address: 14
regTag in binary: 0000000000000000000000000000000000000000000000000000000000001110
Packet address request from CPU: 183936
Packet address request from CPU in binary: 0000000000000000000000000000000000000000000000101100111010000000
Region DBI tag of the packet address: 22
regTag in binary: 0000000000000000000000000000000000000000000000000000000000010110
Packet address request from CPU: 139520
Packet address request from CPU in binary: 0000000000000000000000000000000000000000000000100010000100000000
Region DBI tag of the packet address: 17
regTag in binary: 0000000000000000000000000000000000000000000000000000000000010001
Packet address request from CPU: 116800
Packet address request from CPU in binary: 0000000000000000000000000000000000000000000000011100100001000000
Region DBI tag of the packet address: 14
regTag in binary: 0000000000000000000000000000000000000000000000000000000000001110
Packet address request from CPU: 116672
Packet address request from CPU in binary: 0000000000000000000000000000000000000000000000011100011111000000
Region DBI tag of the packet address: 14
regTag in binary: 0000000000000000000000000000000000000000000000000000000000001110
Packet address request from CPU: 184000
Packet address request from CPU in binary: 0000000000000000000000000000000000000000000000101100111011000000
Region DBI tag of the packet address: 22
regTag in binary: 0000000000000000000000000000000000000000000000000000000000010110
Packet address request from CPU: 184064
Packet address request from CPU in binary: 0000000000000000000000000000000000000000000000101100111100000000
Region DBI tag of the packet address: 22
regTag in binary: 0000000000000000000000000000000000000000000000000000000000010110
Packet address request from CPU: 184128
Packet address request from CPU in binary: 0000000000000000000000000000000000000000000000101100111101000000
Region DBI tag of the packet address: 22
regTag in binary: 0000000000000000000000000000000000000000000000000000000000010110
Packet address request from CPU: 116608
Packet address request from CPU in binary: 0000000000000000000000000000000000000000000000011100011110000000
Region DBI tag of the packet address: 14
regTag in binary: 0000000000000000000000000000000000000000000000000000000000001110
Packet address request from CPU: 184192
Packet address request from CPU in binary: 0000000000000000000000000000000000000000000000101100111110000000
Region DBI tag of the packet address: 22
regTag in binary: 0000000000000000000000000000000000000000000000000000000000010110
Packet address request from CPU: 116992
Packet address request from CPU in binary: 0000000000000000000000000000000000000000000000011100100100000000
Region DBI tag of the packet address: 14
regTag in binary: 0000000000000000000000000000000000000000000000000000000000001110
Packet address request from CPU: 116480
Packet address request from CPU in binary: 0000000000000000000000000000000000000000000000011100011100000000
Region DBI tag of the packet address: 14
regTag in binary: 0000000000000000000000000000000000000000000000000000000000001110
Packet address request from CPU: 116544
Packet address request from CPU in binary: 0000000000000000000000000000000000000000000000011100011101000000
Region DBI tag of the packet address: 14
regTag in binary: 0000000000000000000000000000000000000000000000000000000000001110
Packet address request from CPU: 119808
Packet address request from CPU in binary: 0000000000000000000000000000000000000000000000011101010000000000
Region DBI tag of the packet address: 14
regTag in binary: 0000000000000000000000000000000000000000000000000000000000001110
Packet address request from CPU: 176320
Packet address request from CPU in binary: 0000000000000000000000000000000000000000000000101011000011000000
Region DBI tag of the packet address: 21
regTag in binary: 0000000000000000000000000000000000000000000000000000000000010101
Packet address request from CPU: 119872
Packet address request from CPU in binary: 0000000000000000000000000000000000000000000000011101010001000000
Region DBI tag of the packet address: 14
regTag in binary: 0000000000000000000000000000000000000000000000000000000000001110
Packet address request from CPU: 116864
Packet address request from CPU in binary: 0000000000000000000000000000000000000000000000011100100010000000
Region DBI tag of the packet address: 14
regTag in binary: 0000000000000000000000000000000000000000000000000000000000001110
Packet address request from CPU: 114752
Packet address request from CPU in binary: 0000000000000000000000000000000000000000000000011100000001000000
Region DBI tag of the packet address: 14
regTag in binary: 0000000000000000000000000000000000000000000000000000000000001110
Packet address request from CPU: 183488
Packet address request from CPU in binary: 0000000000000000000000000000000000000000000000101100110011000000
Region DBI tag of the packet address: 22
regTag in binary: 0000000000000000000000000000000000000000000000000000000000010110
Packet address request from CPU: 114816
Packet address request from CPU in binary: 0000000000000000000000000000000000000000000000011100000010000000
Region DBI tag of the packet address: 14
regTag in binary: 0000000000000000000000000000000000000000000000000000000000001110
Packet address request from CPU: 114880
Packet address request from CPU in binary: 0000000000000000000000000000000000000000000000011100000011000000
Region DBI tag of the packet address: 14
regTag in binary: 0000000000000000000000000000000000000000000000000000000000001110
Packet address request from CPU: 114944
Packet address request from CPU in binary: 0000000000000000000000000000000000000000000000011100000100000000
Region DBI tag of the packet address: 14
regTag in binary: 0000000000000000000000000000000000000000000000000000000000001110
Packet address request from CPU: 115008
Packet address request from CPU in binary: 0000000000000000000000000000000000000000000000011100000101000000
Region DBI tag of the packet address: 14
regTag in binary: 0000000000000000000000000000000000000000000000000000000000001110
Packet address request from CPU: 171328
Packet address request from CPU in binary: 0000000000000000000000000000000000000000000000101001110101000000
Region DBI tag of the packet address: 20
regTag in binary: 0000000000000000000000000000000000000000000000000000000000010100
Packet address request from CPU: 119936
Packet address request from CPU in binary: 0000000000000000000000000000000000000000000000011101010010000000
Region DBI tag of the packet address: 14
regTag in binary: 0000000000000000000000000000000000000000000000000000000000001110
Packet address request from CPU: 176256
Packet address request from CPU in binary: 0000000000000000000000000000000000000000000000101011000010000000
Region DBI tag of the packet address: 21
regTag in binary: 0000000000000000000000000000000000000000000000000000000000010101
Packet address request from CPU: 116928
Packet address request from CPU in binary: 0000000000000000000000000000000000000000000000011100100011000000
Region DBI tag of the packet address: 14
regTag in binary: 0000000000000000000000000000000000000000000000000000000000001110
Packet address request from CPU: 20928
Packet address request from CPU in binary: 0000000000000000000000000000000000000000000000000101000111000000
Region DBI tag of the packet address: 2
regTag in binary: 0000000000000000000000000000000000000000000000000000000000000010
Packet address request from CPU: 20992
Packet address request from CPU in binary: 0000000000000000000000000000000000000000000000000101001000000000
Region DBI tag of the packet address: 2
regTag in binary: 0000000000000000000000000000000000000000000000000000000000000010
Packet address request from CPU: 183360
Packet address request from CPU in binary: 0000000000000000000000000000000000000000000000101100110001000000
Region DBI tag of the packet address: 22
regTag in binary: 0000000000000000000000000000000000000000000000000000000000010110
Packet address request from CPU: 176000
Packet address request from CPU in binary: 0000000000000000000000000000000000000000000000101010111110000000
Region DBI tag of the packet address: 21
regTag in binary: 0000000000000000000000000000000000000000000000000000000000010101
Packet address request from CPU: 175936
Packet address request from CPU in binary: 0000000000000000000000000000000000000000000000101010111101000000
Region DBI tag of the packet address: 21
regTag in binary: 0000000000000000000000000000000000000000000000000000000000010101
Packet address request from CPU: 21056
Packet address request from CPU in binary: 0000000000000000000000000000000000000000000000000101001001000000
Region DBI tag of the packet address: 2
regTag in binary: 0000000000000000000000000000000000000000000000000000000000000010
Packet address request from CPU: 183424
Packet address request from CPU in binary: 0000000000000000000000000000000000000000000000101100110010000000
Region DBI tag of the packet address: 22
regTag in binary: 0000000000000000000000000000000000000000000000000000000000010110
Packet address request from CPU: 21120
Packet address request from CPU in binary: 0000000000000000000000000000000000000000000000000101001010000000
Region DBI tag of the packet address: 2
regTag in binary: 0000000000000000000000000000000000000000000000000000000000000010
Packet address request from CPU: 183296
Packet address request from CPU in binary: 0000000000000000000000000000000000000000000000101100110000000000
Region DBI tag of the packet address: 22
regTag in binary: 0000000000000000000000000000000000000000000000000000000000010110
Packet address request from CPU: 117888
Packet address request from CPU in binary: 0000000000000000000000000000000000000000000000011100110010000000
Region DBI tag of the packet address: 14
regTag in binary: 0000000000000000000000000000000000000000000000000000000000001110
Packet address request from CPU: 117952
Packet address request from CPU in binary: 0000000000000000000000000000000000000000000000011100110011000000
Region DBI tag of the packet address: 14
regTag in binary: 0000000000000000000000000000000000000000000000000000000000001110
Packet address request from CPU: 21248
Packet address request from CPU in binary: 0000000000000000000000000000000000000000000000000101001100000000
Region DBI tag of the packet address: 2
regTag in binary: 0000000000000000000000000000000000000000000000000000000000000010
Packet address request from CPU: 170944
Packet address request from CPU in binary: 0000000000000000000000000000000000000000000000101001101111000000
Region DBI tag of the packet address: 20
regTag in binary: 0000000000000000000000000000000000000000000000000000000000010100
Packet address request from CPU: 21440
Packet address request from CPU in binary: 0000000000000000000000000000000000000000000000000101001111000000
Region DBI tag of the packet address: 2
regTag in binary: 0000000000000000000000000000000000000000000000000000000000000010
Packet address request from CPU: 22016
Packet address request from CPU in binary: 0000000000000000000000000000000000000000000000000101011000000000
Region DBI tag of the packet address: 2
regTag in binary: 0000000000000000000000000000000000000000000000000000000000000010
Packet address request from CPU: 22080
Packet address request from CPU in binary: 0000000000000000000000000000000000000000000000000101011001000000
Region DBI tag of the packet address: 2
regTag in binary: 0000000000000000000000000000000000000000000000000000000000000010
Packet address request from CPU: 60352
Packet address request from CPU in binary: 0000000000000000000000000000000000000000000000001110101111000000
Region DBI tag of the packet address: 7
regTag in binary: 0000000000000000000000000000000000000000000000000000000000000111
Packet address request from CPU: 183232
Packet address request from CPU in binary: 0000000000000000000000000000000000000000000000101100101111000000
Region DBI tag of the packet address: 22
regTag in binary: 0000000000000000000000000000000000000000000000000000000000010110
Packet address request from CPU: 130880
Packet address request from CPU in binary: 0000000000000000000000000000000000000000000000011111111101000000
Region DBI tag of the packet address: 15
regTag in binary: 0000000000000000000000000000000000000000000000000000000000001111
Packet address request from CPU: 141376
Packet address request from CPU in binary: 0000000000000000000000000000000000000000000000100010100001000000
Region DBI tag of the packet address: 17
regTag in binary: 0000000000000000000000000000000000000000000000000000000000010001
Packet address request from CPU: 60416
Packet address request from CPU in binary: 0000000000000000000000000000000000000000000000001110110000000000
Region DBI tag of the packet address: 7
regTag in binary: 0000000000000000000000000000000000000000000000000000000000000111
Packet address request from CPU: 60928
Packet address request from CPU in binary: 0000000000000000000000000000000000000000000000001110111000000000
Region DBI tag of the packet address: 7
regTag in binary: 0000000000000000000000000000000000000000000000000000000000000111
Packet address request from CPU: 60992
Packet address request from CPU in binary: 0000000000000000000000000000000000000000000000001110111001000000
Region DBI tag of the packet address: 7
regTag in binary: 0000000000000000000000000000000000000000000000000000000000000111
Packet address request from CPU: 14976
Packet address request from CPU in binary: 0000000000000000000000000000000000000000000000000011101010000000
Region DBI tag of the packet address: 1
regTag in binary: 0000000000000000000000000000000000000000000000000000000000000001
Packet address request from CPU: 118400
Packet address request from CPU in binary: 0000000000000000000000000000000000000000000000011100111010000000
Region DBI tag of the packet address: 14
regTag in binary: 0000000000000000000000000000000000000000000000000000000000001110
Packet address request from CPU: 118336
Packet address request from CPU in binary: 0000000000000000000000000000000000000000000000011100111001000000
Region DBI tag of the packet address: 14
regTag in binary: 0000000000000000000000000000000000000000000000000000000000001110
Packet address request from CPU: 118080
Packet address request from CPU in binary: 0000000000000000000000000000000000000000000000011100110101000000
Region DBI tag of the packet address: 14
regTag in binary: 0000000000000000000000000000000000000000000000000000000000001110
Packet address request from CPU: 183168
Packet address request from CPU in binary: 0000000000000000000000000000000000000000000000101100101110000000
Region DBI tag of the packet address: 22
regTag in binary: 0000000000000000000000000000000000000000000000000000000000010110
Packet address request from CPU: 118144
Packet address request from CPU in binary: 0000000000000000000000000000000000000000000000011100110110000000
Region DBI tag of the packet address: 14
regTag in binary: 0000000000000000000000000000000000000000000000000000000000001110
Packet address request from CPU: 118272
Packet address request from CPU in binary: 0000000000000000000000000000000000000000000000011100111000000000
Region DBI tag of the packet address: 14
regTag in binary: 0000000000000000000000000000000000000000000000000000000000001110
Packet address request from CPU: 60480
Packet address request from CPU in binary: 0000000000000000000000000000000000000000000000001110110001000000
Region DBI tag of the packet address: 7
regTag in binary: 0000000000000000000000000000000000000000000000000000000000000111
Packet address request from CPU: 176512
Packet address request from CPU in binary: 0000000000000000000000000000000000000000000000101011000110000000
Region DBI tag of the packet address: 21
regTag in binary: 0000000000000000000000000000000000000000000000000000000000010101
Packet address request from CPU: 177152
Packet address request from CPU in binary: 0000000000000000000000000000000000000000000000101011010000000000
Region DBI tag of the packet address: 21
regTag in binary: 0000000000000000000000000000000000000000000000000000000000010101
Packet address request from CPU: 134848
Packet address request from CPU in binary: 0000000000000000000000000000000000000000000000100000111011000000
Region DBI tag of the packet address: 16
regTag in binary: 0000000000000000000000000000000000000000000000000000000000010000
Packet address request from CPU: 177856
Packet address request from CPU in binary: 0000000000000000000000000000000000000000000000101011011011000000
Region DBI tag of the packet address: 21
regTag in binary: 0000000000000000000000000000000000000000000000000000000000010101
Packet address request from CPU: 134912
Packet address request from CPU in binary: 0000000000000000000000000000000000000000000000100000111100000000
Region DBI tag of the packet address: 16
regTag in binary: 0000000000000000000000000000000000000000000000000000000000010000
Packet address request from CPU: 134976
Packet address request from CPU in binary: 0000000000000000000000000000000000000000000000100000111101000000
Region DBI tag of the packet address: 16
regTag in binary: 0000000000000000000000000000000000000000000000000000000000010000
Packet address request from CPU: 177216
Packet address request from CPU in binary: 0000000000000000000000000000000000000000000000101011010001000000
Region DBI tag of the packet address: 21
regTag in binary: 0000000000000000000000000000000000000000000000000000000000010101
Packet address request from CPU: 60544
Packet address request from CPU in binary: 0000000000000000000000000000000000000000000000001110110010000000
Region DBI tag of the packet address: 7
regTag in binary: 0000000000000000000000000000000000000000000000000000000000000111
Packet address request from CPU: 176448
Packet address request from CPU in binary: 0000000000000000000000000000000000000000000000101011000101000000
Region DBI tag of the packet address: 21
regTag in binary: 0000000000000000000000000000000000000000000000000000000000010101
Packet address request from CPU: 177408
Packet address request from CPU in binary: 0000000000000000000000000000000000000000000000101011010100000000
Region DBI tag of the packet address: 21
regTag in binary: 0000000000000000000000000000000000000000000000000000000000010101
Packet address request from CPU: 60608
Packet address request from CPU in binary: 0000000000000000000000000000000000000000000000001110110011000000
Region DBI tag of the packet address: 7
regTag in binary: 0000000000000000000000000000000000000000000000000000000000000111
Packet address request from CPU: 177600
Packet address request from CPU in binary: 0000000000000000000000000000000000000000000000101011010111000000
Region DBI tag of the packet address: 21
regTag in binary: 0000000000000000000000000000000000000000000000000000000000010101
Packet address request from CPU: 177664
Packet address request from CPU in binary: 0000000000000000000000000000000000000000000000101011011000000000
Region DBI tag of the packet address: 21
regTag in binary: 0000000000000000000000000000000000000000000000000000000000010101
Packet address request from CPU: 177728
Packet address request from CPU in binary: 0000000000000000000000000000000000000000000000101011011001000000
Region DBI tag of the packet address: 21
regTag in binary: 0000000000000000000000000000000000000000000000000000000000010101
Packet address request from CPU: 177792
Packet address request from CPU in binary: 0000000000000000000000000000000000000000000000101011011010000000
Region DBI tag of the packet address: 21
regTag in binary: 0000000000000000000000000000000000000000000000000000000000010101
Packet address request from CPU: 177344
Packet address request from CPU in binary: 0000000000000000000000000000000000000000000000101011010011000000
Region DBI tag of the packet address: 21
regTag in binary: 0000000000000000000000000000000000000000000000000000000000010101
Packet address request from CPU: 60672
Packet address request from CPU in binary: 0000000000000000000000000000000000000000000000001110110100000000
Region DBI tag of the packet address: 7
regTag in binary: 0000000000000000000000000000000000000000000000000000000000000111
Packet address request from CPU: 172096
Packet address request from CPU in binary: 0000000000000000000000000000000000000000000000101010000001000000
Region DBI tag of the packet address: 21
regTag in binary: 0000000000000000000000000000000000000000000000000000000000010101
Packet address request from CPU: 61184
Packet address request from CPU in binary: 0000000000000000000000000000000000000000000000001110111100000000
Region DBI tag of the packet address: 7
regTag in binary: 0000000000000000000000000000000000000000000000000000000000000111
Packet address request from CPU: 61248
Packet address request from CPU in binary: 0000000000000000000000000000000000000000000000001110111101000000
Region DBI tag of the packet address: 7
regTag in binary: 0000000000000000000000000000000000000000000000000000000000000111
Packet address request from CPU: 60736
Packet address request from CPU in binary: 0000000000000000000000000000000000000000000000001110110101000000
Region DBI tag of the packet address: 7
regTag in binary: 0000000000000000000000000000000000000000000000000000000000000111
Packet address request from CPU: 60800
Packet address request from CPU in binary: 0000000000000000000000000000000000000000000000001110110110000000
Region DBI tag of the packet address: 7
regTag in binary: 0000000000000000000000000000000000000000000000000000000000000111
Packet address request from CPU: 22144
Packet address request from CPU in binary: 0000000000000000000000000000000000000000000000000101011010000000
Region DBI tag of the packet address: 2
regTag in binary: 0000000000000000000000000000000000000000000000000000000000000010
Packet address request from CPU: 60160
Packet address request from CPU in binary: 0000000000000000000000000000000000000000000000001110101100000000
Region DBI tag of the packet address: 7
regTag in binary: 0000000000000000000000000000000000000000000000000000000000000111
Packet address request from CPU: 60224
Packet address request from CPU in binary: 0000000000000000000000000000000000000000000000001110101101000000
Region DBI tag of the packet address: 7
regTag in binary: 0000000000000000000000000000000000000000000000000000000000000111
Packet address request from CPU: 15488
Packet address request from CPU in binary: 0000000000000000000000000000000000000000000000000011110010000000
Region DBI tag of the packet address: 1
regTag in binary: 0000000000000000000000000000000000000000000000000000000000000001
Packet address request from CPU: 174400
Packet address request from CPU in binary: 0000000000000000000000000000000000000000000000101010100101000000
Region DBI tag of the packet address: 21
regTag in binary: 0000000000000000000000000000000000000000000000000000000000010101
Packet address request from CPU: 60288
Packet address request from CPU in binary: 0000000000000000000000000000000000000000000000001110101110000000
Region DBI tag of the packet address: 7
regTag in binary: 0000000000000000000000000000000000000000000000000000000000000111
Packet address request from CPU: 177280
Packet address request from CPU in binary: 0000000000000000000000000000000000000000000000101011010010000000
Region DBI tag of the packet address: 21
regTag in binary: 0000000000000000000000000000000000000000000000000000000000010101
Packet address request from CPU: 22208
Packet address request from CPU in binary: 0000000000000000000000000000000000000000000000000101011011000000
Region DBI tag of the packet address: 2
regTag in binary: 0000000000000000000000000000000000000000000000000000000000000010
Packet address request from CPU: 22272
Packet address request from CPU in binary: 0000000000000000000000000000000000000000000000000101011100000000
Region DBI tag of the packet address: 2
regTag in binary: 0000000000000000000000000000000000000000000000000000000000000010
Packet address request from CPU: 64
Packet address request from CPU in binary: 0000000000000000000000000000000000000000000000000000000001000000
Region DBI tag of the packet address: 0
regTag in binary: 0000000000000000000000000000000000000000000000000000000000000000
Packet address request from CPU: 24512
Packet address request from CPU in binary: 0000000000000000000000000000000000000000000000000101111111000000
Region DBI tag of the packet address: 2
regTag in binary: 0000000000000000000000000000000000000000000000000000000000000010
Packet address request from CPU: 24704
Packet address request from CPU in binary: 0000000000000000000000000000000000000000000000000110000010000000
Region DBI tag of the packet address: 3
regTag in binary: 0000000000000000000000000000000000000000000000000000000000000011
Packet address request from CPU: 128
Packet address request from CPU in binary: 0000000000000000000000000000000000000000000000000000000010000000
Region DBI tag of the packet address: 0
regTag in binary: 0000000000000000000000000000000000000000000000000000000000000000
Packet address request from CPU: 176128
Packet address request from CPU in binary: 0000000000000000000000000000000000000000000000101011000000000000
Region DBI tag of the packet address: 21
regTag in binary: 0000000000000000000000000000000000000000000000000000000000010101
Packet address request from CPU: 24576
Packet address request from CPU in binary: 0000000000000000000000000000000000000000000000000110000000000000
Region DBI tag of the packet address: 3
regTag in binary: 0000000000000000000000000000000000000000000000000000000000000011
Packet address request from CPU: 192
Packet address request from CPU in binary: 0000000000000000000000000000000000000000000000000000000011000000
Region DBI tag of the packet address: 0
regTag in binary: 0000000000000000000000000000000000000000000000000000000000000000
Packet address request from CPU: 24640
Packet address request from CPU in binary: 0000000000000000000000000000000000000000000000000110000001000000
Region DBI tag of the packet address: 3
regTag in binary: 0000000000000000000000000000000000000000000000000000000000000011
Packet address request from CPU: 256
Packet address request from CPU in binary: 0000000000000000000000000000000000000000000000000000000100000000
Region DBI tag of the packet address: 0
regTag in binary: 0000000000000000000000000000000000000000000000000000000000000000
Packet address request from CPU: 24832
Packet address request from CPU in binary: 0000000000000000000000000000000000000000000000000110000100000000
Region DBI tag of the packet address: 3
regTag in binary: 0000000000000000000000000000000000000000000000000000000000000011
Packet address request from CPU: 320
Packet address request from CPU in binary: 0000000000000000000000000000000000000000000000000000000101000000
Region DBI tag of the packet address: 0
regTag in binary: 0000000000000000000000000000000000000000000000000000000000000000
Packet address request from CPU: 384
Packet address request from CPU in binary: 0000000000000000000000000000000000000000000000000000000110000000
Region DBI tag of the packet address: 0
regTag in binary: 0000000000000000000000000000000000000000000000000000000000000000
Packet address request from CPU: 22336
Packet address request from CPU in binary: 0000000000000000000000000000000000000000000000000101011101000000
Region DBI tag of the packet address: 2
regTag in binary: 0000000000000000000000000000000000000000000000000000000000000010
Packet address request from CPU: 448
Packet address request from CPU in binary: 0000000000000000000000000000000000000000000000000000000111000000
Region DBI tag of the packet address: 0
regTag in binary: 0000000000000000000000000000000000000000000000000000000000000000
Packet address request from CPU: 512
Packet address request from CPU in binary: 0000000000000000000000000000000000000000000000000000001000000000
Region DBI tag of the packet address: 0
regTag in binary: 0000000000000000000000000000000000000000000000000000000000000000
Packet address request from CPU: 24448
Packet address request from CPU in binary: 0000000000000000000000000000000000000000000000000101111110000000
Region DBI tag of the packet address: 2
regTag in binary: 0000000000000000000000000000000000000000000000000000000000000010
Packet address request from CPU: 22400
Packet address request from CPU in binary: 0000000000000000000000000000000000000000000000000101011110000000
Region DBI tag of the packet address: 2
regTag in binary: 0000000000000000000000000000000000000000000000000000000000000010
Packet address request from CPU: 22464
Packet address request from CPU in binary: 0000000000000000000000000000000000000000000000000101011111000000
Region DBI tag of the packet address: 2
regTag in binary: 0000000000000000000000000000000000000000000000000000000000000010
Packet address request from CPU: 177536
Packet address request from CPU in binary: 0000000000000000000000000000000000000000000000101011010110000000
Region DBI tag of the packet address: 21
regTag in binary: 0000000000000000000000000000000000000000000000000000000000010101
Packet address request from CPU: 22528
Packet address request from CPU in binary: 0000000000000000000000000000000000000000000000000101100000000000
Region DBI tag of the packet address: 2
regTag in binary: 0000000000000000000000000000000000000000000000000000000000000010
Packet address request from CPU: 125568
Packet address request from CPU in binary: 0000000000000000000000000000000000000000000000011110101010000000
Region DBI tag of the packet address: 15
regTag in binary: 0000000000000000000000000000000000000000000000000000000000001111
Packet address request from CPU: 125632
Packet address request from CPU in binary: 0000000000000000000000000000000000000000000000011110101011000000
Region DBI tag of the packet address: 15
regTag in binary: 0000000000000000000000000000000000000000000000000000000000001111
Packet address request from CPU: 125696
Packet address request from CPU in binary: 0000000000000000000000000000000000000000000000011110101100000000
Region DBI tag of the packet address: 15
regTag in binary: 0000000000000000000000000000000000000000000000000000000000001111
Packet address request from CPU: 140480
Packet address request from CPU in binary: 0000000000000000000000000000000000000000000000100010010011000000
Region DBI tag of the packet address: 17
regTag in binary: 0000000000000000000000000000000000000000000000000000000000010001
Packet address request from CPU: 129408
Packet address request from CPU in binary: 0000000000000000000000000000000000000000000000011111100110000000
Region DBI tag of the packet address: 15
regTag in binary: 0000000000000000000000000000000000000000000000000000000000001111
Packet address request from CPU: 14208
Packet address request from CPU in binary: 0000000000000000000000000000000000000000000000000011011110000000
Region DBI tag of the packet address: 1
regTag in binary: 0000000000000000000000000000000000000000000000000000000000000001
Packet address request from CPU: 129472
Packet address request from CPU in binary: 0000000000000000000000000000000000000000000000011111100111000000
Region DBI tag of the packet address: 15
regTag in binary: 0000000000000000000000000000000000000000000000000000000000001111
Packet address request from CPU: 130688
Packet address request from CPU in binary: 0000000000000000000000000000000000000000000000011111111010000000
Region DBI tag of the packet address: 15
regTag in binary: 0000000000000000000000000000000000000000000000000000000000001111
Packet address request from CPU: 130752
Packet address request from CPU in binary: 0000000000000000000000000000000000000000000000011111111011000000
Region DBI tag of the packet address: 15
regTag in binary: 0000000000000000000000000000000000000000000000000000000000001111
Packet address request from CPU: 22592
Packet address request from CPU in binary: 0000000000000000000000000000000000000000000000000101100001000000
Region DBI tag of the packet address: 2
regTag in binary: 0000000000000000000000000000000000000000000000000000000000000010
Packet address request from CPU: 176064
Packet address request from CPU in binary: 0000000000000000000000000000000000000000000000101010111111000000
Region DBI tag of the packet address: 21
regTag in binary: 0000000000000000000000000000000000000000000000000000000000010101
Packet address request from CPU: 22656
Packet address request from CPU in binary: 0000000000000000000000000000000000000000000000000101100010000000
Region DBI tag of the packet address: 2
regTag in binary: 0000000000000000000000000000000000000000000000000000000000000010
Packet address request from CPU: 7680
Packet address request from CPU in binary: 0000000000000000000000000000000000000000000000000001111000000000
Region DBI tag of the packet address: 0
regTag in binary: 0000000000000000000000000000000000000000000000000000000000000000
Packet address request from CPU: 22720
Packet address request from CPU in binary: 0000000000000000000000000000000000000000000000000101100011000000
Region DBI tag of the packet address: 2
regTag in binary: 0000000000000000000000000000000000000000000000000000000000000010
Packet address request from CPU: 176640
Packet address request from CPU in binary: 0000000000000000000000000000000000000000000000101011001000000000
Region DBI tag of the packet address: 21
regTag in binary: 0000000000000000000000000000000000000000000000000000000000010101
Packet address request from CPU: 7744
Packet address request from CPU in binary: 0000000000000000000000000000000000000000000000000001111001000000
Region DBI tag of the packet address: 0
regTag in binary: 0000000000000000000000000000000000000000000000000000000000000000
Packet address request from CPU: 176704
Packet address request from CPU in binary: 0000000000000000000000000000000000000000000000101011001001000000
Region DBI tag of the packet address: 21
regTag in binary: 0000000000000000000000000000000000000000000000000000000000010101
Packet address request from CPU: 176768
Packet address request from CPU in binary: 0000000000000000000000000000000000000000000000101011001010000000
Region DBI tag of the packet address: 21
regTag in binary: 0000000000000000000000000000000000000000000000000000000000010101
Packet address request from CPU: 7808
Packet address request from CPU in binary: 0000000000000000000000000000000000000000000000000001111010000000
Region DBI tag of the packet address: 0
regTag in binary: 0000000000000000000000000000000000000000000000000000000000000000
Packet address request from CPU: 22784
Packet address request from CPU in binary: 0000000000000000000000000000000000000000000000000101100100000000
Region DBI tag of the packet address: 2
regTag in binary: 0000000000000000000000000000000000000000000000000000000000000010
Packet address request from CPU: 24896
Packet address request from CPU in binary: 0000000000000000000000000000000000000000000000000110000101000000
Region DBI tag of the packet address: 3
regTag in binary: 0000000000000000000000000000000000000000000000000000000000000011
Packet address request from CPU: 24960
Packet address request from CPU in binary: 0000000000000000000000000000000000000000000000000110000110000000
Region DBI tag of the packet address: 3
regTag in binary: 0000000000000000000000000000000000000000000000000000000000000011
Packet address request from CPU: 25024
Packet address request from CPU in binary: 0000000000000000000000000000000000000000000000000110000111000000
Region DBI tag of the packet address: 3
regTag in binary: 0000000000000000000000000000000000000000000000000000000000000011
Packet address request from CPU: 176576
Packet address request from CPU in binary: 0000000000000000000000000000000000000000000000101011000111000000
Region DBI tag of the packet address: 21
regTag in binary: 0000000000000000000000000000000000000000000000000000000000010101
Packet address request from CPU: 7872
Packet address request from CPU in binary: 0000000000000000000000000000000000000000000000000001111011000000
Region DBI tag of the packet address: 0
regTag in binary: 0000000000000000000000000000000000000000000000000000000000000000
Packet address request from CPU: 7936
Packet address request from CPU in binary: 0000000000000000000000000000000000000000000000000001111100000000
Region DBI tag of the packet address: 0
regTag in binary: 0000000000000000000000000000000000000000000000000000000000000000
Packet address request from CPU: 8000
Packet address request from CPU in binary: 0000000000000000000000000000000000000000000000000001111101000000
Region DBI tag of the packet address: 0
regTag in binary: 0000000000000000000000000000000000000000000000000000000000000000
Packet address request from CPU: 176832
Packet address request from CPU in binary: 0000000000000000000000000000000000000000000000101011001011000000
Region DBI tag of the packet address: 21
regTag in binary: 0000000000000000000000000000000000000000000000000000000000010101
Packet address request from CPU: 8064
Packet address request from CPU in binary: 0000000000000000000000000000000000000000000000000001111110000000
Region DBI tag of the packet address: 0
regTag in binary: 0000000000000000000000000000000000000000000000000000000000000000
Packet address request from CPU: 176896
Packet address request from CPU in binary: 0000000000000000000000000000000000000000000000101011001100000000
Region DBI tag of the packet address: 21
regTag in binary: 0000000000000000000000000000000000000000000000000000000000010101
Packet address request from CPU: 22912
Packet address request from CPU in binary: 0000000000000000000000000000000000000000000000000101100110000000
Region DBI tag of the packet address: 2
regTag in binary: 0000000000000000000000000000000000000000000000000000000000000010
Packet address request from CPU: 22976
Packet address request from CPU in binary: 0000000000000000000000000000000000000000000000000101100111000000
Region DBI tag of the packet address: 2
regTag in binary: 0000000000000000000000000000000000000000000000000000000000000010
Packet address request from CPU: 23040
Packet address request from CPU in binary: 0000000000000000000000000000000000000000000000000101101000000000
Region DBI tag of the packet address: 2
regTag in binary: 0000000000000000000000000000000000000000000000000000000000000010
Packet address request from CPU: 23104
Packet address request from CPU in binary: 0000000000000000000000000000000000000000000000000101101001000000
Region DBI tag of the packet address: 2
regTag in binary: 0000000000000000000000000000000000000000000000000000000000000010
Packet address request from CPU: 640
Packet address request from CPU in binary: 0000000000000000000000000000000000000000000000000000001010000000
Region DBI tag of the packet address: 0
regTag in binary: 0000000000000000000000000000000000000000000000000000000000000000
Packet address request from CPU: 23168
Packet address request from CPU in binary: 0000000000000000000000000000000000000000000000000101101010000000
Region DBI tag of the packet address: 2
regTag in binary: 0000000000000000000000000000000000000000000000000000000000000010
Packet address request from CPU: 177920
Packet address request from CPU in binary: 0000000000000000000000000000000000000000000000101011011100000000
Region DBI tag of the packet address: 21
regTag in binary: 0000000000000000000000000000000000000000000000000000000000010101
Packet address request from CPU: 178624
Packet address request from CPU in binary: 0000000000000000000000000000000000000000000000101011100111000000
Region DBI tag of the packet address: 21
regTag in binary: 0000000000000000000000000000000000000000000000000000000000010101
Packet address request from CPU: 179072
Packet address request from CPU in binary: 0000000000000000000000000000000000000000000000101011101110000000
Region DBI tag of the packet address: 21
regTag in binary: 0000000000000000000000000000000000000000000000000000000000010101
Packet address request from CPU: 179008
Packet address request from CPU in binary: 0000000000000000000000000000000000000000000000101011101101000000
Region DBI tag of the packet address: 21
regTag in binary: 0000000000000000000000000000000000000000000000000000000000010101
Packet address request from CPU: 178688
Packet address request from CPU in binary: 0000000000000000000000000000000000000000000000101011101000000000
Region DBI tag of the packet address: 21
regTag in binary: 0000000000000000000000000000000000000000000000000000000000010101
Packet address request from CPU: 178880
Packet address request from CPU in binary: 0000000000000000000000000000000000000000000000101011101011000000
Region DBI tag of the packet address: 21
regTag in binary: 0000000000000000000000000000000000000000000000000000000000010101
Packet address request from CPU: 178752
Packet address request from CPU in binary: 0000000000000000000000000000000000000000000000101011101001000000
Region DBI tag of the packet address: 21
regTag in binary: 0000000000000000000000000000000000000000000000000000000000010101
Packet address request from CPU: 178816
Packet address request from CPU in binary: 0000000000000000000000000000000000000000000000101011101010000000
Region DBI tag of the packet address: 21
regTag in binary: 0000000000000000000000000000000000000000000000000000000000010101
Packet address request from CPU: 61056
Packet address request from CPU in binary: 0000000000000000000000000000000000000000000000001110111010000000
Region DBI tag of the packet address: 7
regTag in binary: 0000000000000000000000000000000000000000000000000000000000000111
Packet address request from CPU: 61120
Packet address request from CPU in binary: 0000000000000000000000000000000000000000000000001110111011000000
Region DBI tag of the packet address: 7
regTag in binary: 0000000000000000000000000000000000000000000000000000000000000111
Packet address request from CPU: 184320
Packet address request from CPU in binary: 0000000000000000000000000000000000000000000000101101000000000000
Region DBI tag of the packet address: 22
regTag in binary: 0000000000000000000000000000000000000000000000000000000000010110
Packet address request from CPU: 178560
Packet address request from CPU in binary: 0000000000000000000000000000000000000000000000101011100110000000
Region DBI tag of the packet address: 21
regTag in binary: 0000000000000000000000000000000000000000000000000000000000010101
Packet address request from CPU: 23232
Packet address request from CPU in binary: 0000000000000000000000000000000000000000000000000101101011000000
Region DBI tag of the packet address: 2
regTag in binary: 0000000000000000000000000000000000000000000000000000000000000010
Packet address request from CPU: 23296
Packet address request from CPU in binary: 0000000000000000000000000000000000000000000000000101101100000000
Region DBI tag of the packet address: 2
regTag in binary: 0000000000000000000000000000000000000000000000000000000000000010
Packet address request from CPU: 23360
Packet address request from CPU in binary: 0000000000000000000000000000000000000000000000000101101101000000
Region DBI tag of the packet address: 2
regTag in binary: 0000000000000000000000000000000000000000000000000000000000000010
Packet address request from CPU: 23424
Packet address request from CPU in binary: 0000000000000000000000000000000000000000000000000101101110000000
Region DBI tag of the packet address: 2
regTag in binary: 0000000000000000000000000000000000000000000000000000000000000010
Packet address request from CPU: 23488
Packet address request from CPU in binary: 0000000000000000000000000000000000000000000000000101101111000000
Region DBI tag of the packet address: 2
regTag in binary: 0000000000000000000000000000000000000000000000000000000000000010
Packet address request from CPU: 177984
Packet address request from CPU in binary: 0000000000000000000000000000000000000000000000101011011101000000
Region DBI tag of the packet address: 21
regTag in binary: 0000000000000000000000000000000000000000000000000000000000010101
Packet address request from CPU: 30976
Packet address request from CPU in binary: 0000000000000000000000000000000000000000000000000111100100000000
Region DBI tag of the packet address: 3
regTag in binary: 0000000000000000000000000000000000000000000000000000000000000011
Packet address request from CPU: 31040
Packet address request from CPU in binary: 0000000000000000000000000000000000000000000000000111100101000000
Region DBI tag of the packet address: 3
regTag in binary: 0000000000000000000000000000000000000000000000000000000000000011
Packet address request from CPU: 23616
Packet address request from CPU in binary: 0000000000000000000000000000000000000000000000000101110001000000
Region DBI tag of the packet address: 2
regTag in binary: 0000000000000000000000000000000000000000000000000000000000000010
Packet address request from CPU: 23680
Packet address request from CPU in binary: 0000000000000000000000000000000000000000000000000101110010000000
Region DBI tag of the packet address: 2
regTag in binary: 0000000000000000000000000000000000000000000000000000000000000010
Packet address request from CPU: 23744
Packet address request from CPU in binary: 0000000000000000000000000000000000000000000000000101110011000000
Region DBI tag of the packet address: 2
regTag in binary: 0000000000000000000000000000000000000000000000000000000000000010
Packet address request from CPU: 23808
Packet address request from CPU in binary: 0000000000000000000000000000000000000000000000000101110100000000
Region DBI tag of the packet address: 2
regTag in binary: 0000000000000000000000000000000000000000000000000000000000000010
Packet address request from CPU: 178112
Packet address request from CPU in binary: 0000000000000000000000000000000000000000000000101011011111000000
Region DBI tag of the packet address: 21
regTag in binary: 0000000000000000000000000000000000000000000000000000000000010101
Packet address request from CPU: 23872
Packet address request from CPU in binary: 0000000000000000000000000000000000000000000000000101110101000000
Region DBI tag of the packet address: 2
regTag in binary: 0000000000000000000000000000000000000000000000000000000000000010
Packet address request from CPU: 178368
Packet address request from CPU in binary: 0000000000000000000000000000000000000000000000101011100011000000
Region DBI tag of the packet address: 21
regTag in binary: 0000000000000000000000000000000000000000000000000000000000010101
Packet address request from CPU: 23936
Packet address request from CPU in binary: 0000000000000000000000000000000000000000000000000101110110000000
Region DBI tag of the packet address: 2
regTag in binary: 0000000000000000000000000000000000000000000000000000000000000010
Packet address request from CPU: 24000
Packet address request from CPU in binary: 0000000000000000000000000000000000000000000000000101110111000000
Region DBI tag of the packet address: 2
regTag in binary: 0000000000000000000000000000000000000000000000000000000000000010
Packet address request from CPU: 178176
Packet address request from CPU in binary: 0000000000000000000000000000000000000000000000101011100000000000
Region DBI tag of the packet address: 21
regTag in binary: 0000000000000000000000000000000000000000000000000000000000010101
Packet address request from CPU: 24064
Packet address request from CPU in binary: 0000000000000000000000000000000000000000000000000101111000000000
Region DBI tag of the packet address: 2
regTag in binary: 0000000000000000000000000000000000000000000000000000000000000010
Packet address request from CPU: 178240
Packet address request from CPU in binary: 0000000000000000000000000000000000000000000000101011100001000000
Region DBI tag of the packet address: 21
regTag in binary: 0000000000000000000000000000000000000000000000000000000000010101
Packet address request from CPU: 24128
Packet address request from CPU in binary: 0000000000000000000000000000000000000000000000000101111001000000
Region DBI tag of the packet address: 2
regTag in binary: 0000000000000000000000000000000000000000000000000000000000000010
Packet address request from CPU: 24192
Packet address request from CPU in binary: 0000000000000000000000000000000000000000000000000101111010000000
Region DBI tag of the packet address: 2
regTag in binary: 0000000000000000000000000000000000000000000000000000000000000010
Packet address request from CPU: 178048
Packet address request from CPU in binary: 0000000000000000000000000000000000000000000000101011011110000000
Region DBI tag of the packet address: 21
regTag in binary: 0000000000000000000000000000000000000000000000000000000000010101
Packet address request from CPU: 24256
Packet address request from CPU in binary: 0000000000000000000000000000000000000000000000000101111011000000
Region DBI tag of the packet address: 2
regTag in binary: 0000000000000000000000000000000000000000000000000000000000000010
Packet address request from CPU: 24320
Packet address request from CPU in binary: 0000000000000000000000000000000000000000000000000101111100000000
Region DBI tag of the packet address: 2
regTag in binary: 0000000000000000000000000000000000000000000000000000000000000010
Packet address request from CPU: 24384
Packet address request from CPU in binary: 0000000000000000000000000000000000000000000000000101111101000000
Region DBI tag of the packet address: 2
regTag in binary: 0000000000000000000000000000000000000000000000000000000000000010
Packet address request from CPU: 117440
Packet address request from CPU in binary: 0000000000000000000000000000000000000000000000011100101011000000
Region DBI tag of the packet address: 14
regTag in binary: 0000000000000000000000000000000000000000000000000000000000001110
Packet address request from CPU: 117504
Packet address request from CPU in binary: 0000000000000000000000000000000000000000000000011100101100000000
Region DBI tag of the packet address: 14
regTag in binary: 0000000000000000000000000000000000000000000000000000000000001110
Packet address request from CPU: 182784
Packet address request from CPU in binary: 0000000000000000000000000000000000000000000000101100101000000000
Region DBI tag of the packet address: 22
regTag in binary: 0000000000000000000000000000000000000000000000000000000000010110
Packet address request from CPU: 117696
Packet address request from CPU in binary: 0000000000000000000000000000000000000000000000011100101111000000
Region DBI tag of the packet address: 14
regTag in binary: 0000000000000000000000000000000000000000000000000000000000001110
Packet address request from CPU: 124160
Packet address request from CPU in binary: 0000000000000000000000000000000000000000000000011110010100000000
Region DBI tag of the packet address: 15
regTag in binary: 0000000000000000000000000000000000000000000000000000000000001111
Packet address request from CPU: 182976
Packet address request from CPU in binary: 0000000000000000000000000000000000000000000000101100101011000000
Region DBI tag of the packet address: 22
regTag in binary: 0000000000000000000000000000000000000000000000000000000000010110
Packet address request from CPU: 117760
Packet address request from CPU in binary: 0000000000000000000000000000000000000000000000011100110000000000
Region DBI tag of the packet address: 14
regTag in binary: 0000000000000000000000000000000000000000000000000000000000001110
Packet address request from CPU: 117632
Packet address request from CPU in binary: 0000000000000000000000000000000000000000000000011100101110000000
Region DBI tag of the packet address: 14
regTag in binary: 0000000000000000000000000000000000000000000000000000000000001110
Packet address request from CPU: 26560
Packet address request from CPU in binary: 0000000000000000000000000000000000000000000000000110011111000000
Region DBI tag of the packet address: 3
regTag in binary: 0000000000000000000000000000000000000000000000000000000000000011
Packet address request from CPU: 26624
Packet address request from CPU in binary: 0000000000000000000000000000000000000000000000000110100000000000
Region DBI tag of the packet address: 3
regTag in binary: 0000000000000000000000000000000000000000000000000000000000000011
Packet address request from CPU: 46336
Packet address request from CPU in binary: 0000000000000000000000000000000000000000000000001011010100000000
Region DBI tag of the packet address: 5
regTag in binary: 0000000000000000000000000000000000000000000000000000000000000101
Packet address request from CPU: 46400
Packet address request from CPU in binary: 0000000000000000000000000000000000000000000000001011010101000000
Region DBI tag of the packet address: 5
regTag in binary: 0000000000000000000000000000000000000000000000000000000000000101
Packet address request from CPU: 74240
Packet address request from CPU in binary: 0000000000000000000000000000000000000000000000010010001000000000
Region DBI tag of the packet address: 9
regTag in binary: 0000000000000000000000000000000000000000000000000000000000001001
Packet address request from CPU: 183104
Packet address request from CPU in binary: 0000000000000000000000000000000000000000000000101100101101000000
Region DBI tag of the packet address: 22
regTag in binary: 0000000000000000000000000000000000000000000000000000000000010110
Packet address request from CPU: 183040
Packet address request from CPU in binary: 0000000000000000000000000000000000000000000000101100101100000000
Region DBI tag of the packet address: 22
regTag in binary: 0000000000000000000000000000000000000000000000000000000000010110
Packet address request from CPU: 74304
Packet address request from CPU in binary: 0000000000000000000000000000000000000000000000010010001001000000
Region DBI tag of the packet address: 9
regTag in binary: 0000000000000000000000000000000000000000000000000000000000001001
Packet address request from CPU: 74368
Packet address request from CPU in binary: 0000000000000000000000000000000000000000000000010010001010000000
Region DBI tag of the packet address: 9
regTag in binary: 0000000000000000000000000000000000000000000000000000000000001001
Packet address request from CPU: 74880
Packet address request from CPU in binary: 0000000000000000000000000000000000000000000000010010010010000000
Region DBI tag of the packet address: 9
regTag in binary: 0000000000000000000000000000000000000000000000000000000000001001
Packet address request from CPU: 74944
Packet address request from CPU in binary: 0000000000000000000000000000000000000000000000010010010011000000
Region DBI tag of the packet address: 9
regTag in binary: 0000000000000000000000000000000000000000000000000000000000001001
Packet address request from CPU: 123648
Packet address request from CPU in binary: 0000000000000000000000000000000000000000000000011110001100000000
Region DBI tag of the packet address: 15
regTag in binary: 0000000000000000000000000000000000000000000000000000000000001111
Packet address request from CPU: 123712
Packet address request from CPU in binary: 0000000000000000000000000000000000000000000000011110001101000000
Region DBI tag of the packet address: 15
regTag in binary: 0000000000000000000000000000000000000000000000000000000000001111
Packet address request from CPU: 76032
Packet address request from CPU in binary: 0000000000000000000000000000000000000000000000010010100100000000
Region DBI tag of the packet address: 9
regTag in binary: 0000000000000000000000000000000000000000000000000000000000001001
Packet address request from CPU: 76096
Packet address request from CPU in binary: 0000000000000000000000000000000000000000000000010010100101000000
Region DBI tag of the packet address: 9
regTag in binary: 0000000000000000000000000000000000000000000000000000000000001001
Packet address request from CPU: 74816
Packet address request from CPU in binary: 0000000000000000000000000000000000000000000000010010010001000000
Region DBI tag of the packet address: 9
regTag in binary: 0000000000000000000000000000000000000000000000000000000000001001
Packet address request from CPU: 75008
Packet address request from CPU in binary: 0000000000000000000000000000000000000000000000010010010100000000
Region DBI tag of the packet address: 9
regTag in binary: 0000000000000000000000000000000000000000000000000000000000001001
Packet address request from CPU: 75072
Packet address request from CPU in binary: 0000000000000000000000000000000000000000000000010010010101000000
Region DBI tag of the packet address: 9
regTag in binary: 0000000000000000000000000000000000000000000000000000000000001001
Packet address request from CPU: 75968
Packet address request from CPU in binary: 0000000000000000000000000000000000000000000000010010100011000000
Region DBI tag of the packet address: 9
regTag in binary: 0000000000000000000000000000000000000000000000000000000000001001
Packet address request from CPU: 76160
Packet address request from CPU in binary: 0000000000000000000000000000000000000000000000010010100110000000
Region DBI tag of the packet address: 9
regTag in binary: 0000000000000000000000000000000000000000000000000000000000001001
Packet address request from CPU: 76224
Packet address request from CPU in binary: 0000000000000000000000000000000000000000000000010010100111000000
Region DBI tag of the packet address: 9
regTag in binary: 0000000000000000000000000000000000000000000000000000000000001001
Packet address request from CPU: 134272
Packet address request from CPU in binary: 0000000000000000000000000000000000000000000000100000110010000000
Region DBI tag of the packet address: 16
regTag in binary: 0000000000000000000000000000000000000000000000000000000000010000
Packet address request from CPU: 142592
Packet address request from CPU in binary: 0000000000000000000000000000000000000000000000100010110100000000
Region DBI tag of the packet address: 17
regTag in binary: 0000000000000000000000000000000000000000000000000000000000010001
[...]
Region DBI tag of the packet address: 15
regTag in binary: 0000000000000000000000000000000000000000000000000000000000001111
Packet address request from CPU: 517440
Packet address request from CPU in binary: 0000000000000000000000000000000000000000000001111110010101000000
Region DBI tag of the packet address: 63
regTag in binary: 0000000000000000000000000000000000000000000000000000000000111111
Packet address request from CPU: 517504
Packet address request from CPU in binary: 0000000000000000000000000000000000000000000001111110010110000000
Region DBI tag of the packet address: 63
regTag in binary: 0000000000000000000000000000000000000000000000000000000000111111
Packet address request from CPU: 593216
Packet address request from CPU in binary: 0000000000000000000000000000000000000000000010010000110101000000
Region DBI tag of the packet address: 72
regTag in binary: 0000000000000000000000000000000000000000000000000000000001001000
Packet address request from CPU: 593280
Packet address request from CPU in binary: 0000000000000000000000000000000000000000000010010000110110000000
Region DBI tag of the packet address: 72
regTag in binary: 0000000000000000000000000000000000000000000000000000000001001000
Packet address request from CPU: 593600
Packet address request from CPU in binary: 0000000000000000000000000000000000000000000010010000111011000000
Region DBI tag of the packet address: 72
regTag in binary: 0000000000000000000000000000000000000000000000000000000001001000
Packet address request from CPU: 594560
Packet address request from CPU in binary: 0000000000000000000000000000000000000000000010010001001010000000
Region DBI tag of the packet address: 72
regTag in binary: 0000000000000000000000000000000000000000000000000000000001001000
Packet address request from CPU: 594624
Packet address request from CPU in binary: 0000000000000000000000000000000000000000000010010001001011000000
Region DBI tag of the packet address: 72
regTag in binary: 0000000000000000000000000000000000000000000000000000000001001000
Packet address request from CPU: 593664
Packet address request from CPU in binary: 0000000000000000000000000000000000000000000010010000111100000000
Region DBI tag of the packet address: 72
regTag in binary: 0000000000000000000000000000000000000000000000000000000001001000
Packet address request from CPU: 596160
Packet address request from CPU in binary: 0000000000000000000000000000000000000000000010010001100011000000
Region DBI tag of the packet address: 72
regTag in binary: 0000000000000000000000000000000000000000000000000000000001001000
Packet address request from CPU: 596224
Packet address request from CPU in binary: 0000000000000000000000000000000000000000000010010001100100000000
Region DBI tag of the packet address: 72
regTag in binary: 0000000000000000000000000000000000000000000000000000000001001000
Packet address request from CPU: 593728
Packet address request from CPU in binary: 0000000000000000000000000000000000000000000010010000111101000000
Region DBI tag of the packet address: 72
regTag in binary: 0000000000000000000000000000000000000000000000000000000001001000
Packet address request from CPU: 593856
Packet address request from CPU in binary: 0000000000000000000000000000000000000000000010010000111111000000
Region DBI tag of the packet address: 72
regTag in binary: 0000000000000000000000000000000000000000000000000000000001001000
Packet address request from CPU: 593984
Packet address request from CPU in binary: 0000000000000000000000000000000000000000000010010001000001000000
Region DBI tag of the packet address: 72
regTag in binary: 0000000000000000000000000000000000000000000000000000000001001000
Packet address request from CPU: 594048
Packet address request from CPU in binary: 0000000000000000000000000000000000000000000010010001000010000000
Region DBI tag of the packet address: 72
regTag in binary: 0000000000000000000000000000000000000000000000000000000001001000
Packet address request from CPU: 596352
Packet address request from CPU in binary: 0000000000000000000000000000000000000000000010010001100110000000
Region DBI tag of the packet address: 72
regTag in binary: 0000000000000000000000000000000000000000000000000000000001001000
Packet address request from CPU: 596416
Packet address request from CPU in binary: 0000000000000000000000000000000000000000000010010001100111000000
Region DBI tag of the packet address: 72
regTag in binary: 0000000000000000000000000000000000000000000000000000000001001000
Packet address request from CPU: 600128
Packet address request from CPU in binary: 0000000000000000000000000000000000000000000010010010100001000000
Region DBI tag of the packet address: 73
regTag in binary: 0000000000000000000000000000000000000000000000000000000001001001
Packet address request from CPU: 600192
Packet address request from CPU in binary: 0000000000000000000000000000000000000000000010010010100010000000
Region DBI tag of the packet address: 73
regTag in binary: 0000000000000000000000000000000000000000000000000000000001001001
Packet address request from CPU: 595008
Packet address request from CPU in binary: 0000000000000000000000000000000000000000000010010001010001000000
Region DBI tag of the packet address: 72
regTag in binary: 0000000000000000000000000000000000000000000000000000000001001000
Packet address request from CPU: 595072
Packet address request from CPU in binary: 0000000000000000000000000000000000000000000010010001010010000000
Region DBI tag of the packet address: 72
regTag in binary: 0000000000000000000000000000000000000000000000000000000001001000
Packet address request from CPU: 593536
Packet address request from CPU in binary: 0000000000000000000000000000000000000000000010010000111010000000
Region DBI tag of the packet address: 72
regTag in binary: 0000000000000000000000000000000000000000000000000000000001001000
Packet address request from CPU: 442432
Packet address request from CPU in binary: 0000000000000000000000000000000000000000000001101100000001000000
Region DBI tag of the packet address: 54
regTag in binary: 0000000000000000000000000000000000000000000000000000000000110110
Packet address request from CPU: 462592
Packet address request from CPU in binary: 0000000000000000000000000000000000000000000001110000111100000000
Region DBI tag of the packet address: 56
regTag in binary: 0000000000000000000000000000000000000000000000000000000000111000
Packet address request from CPU: 443840
Packet address request from CPU in binary: 0000000000000000000000000000000000000000000001101100010111000000
Region DBI tag of the packet address: 54
regTag in binary: 0000000000000000000000000000000000000000000000000000000000110110
Packet address request from CPU: 443904
Packet address request from CPU in binary: 0000000000000000000000000000000000000000000001101100011000000000
Region DBI tag of the packet address: 54
regTag in binary: 0000000000000000000000000000000000000000000000000000000000110110
Packet address request from CPU: 462656
Packet address request from CPU in binary: 0000000000000000000000000000000000000000000001110000111101000000
Region DBI tag of the packet address: 56
regTag in binary: 0000000000000000000000000000000000000000000000000000000000111000
Packet address request from CPU: 462784
Packet address request from CPU in binary: 0000000000000000000000000000000000000000000001110000111111000000
Region DBI tag of the packet address: 56
regTag in binary: 0000000000000000000000000000000000000000000000000000000000111000
Packet address request from CPU: 442368
Packet address request from CPU in binary: 0000000000000000000000000000000000000000000001101100000000000000
Region DBI tag of the packet address: 54
regTag in binary: 0000000000000000000000000000000000000000000000000000000000110110
Packet address request from CPU: 80576
Packet address request from CPU in binary: 0000000000000000000000000000000000000000000000010011101011000000
Region DBI tag of the packet address: 9
regTag in binary: 0000000000000000000000000000000000000000000000000000000000001001
Packet address request from CPU: 80640
Packet address request from CPU in binary: 0000000000000000000000000000000000000000000000010011101100000000
Region DBI tag of the packet address: 9
regTag in binary: 0000000000000000000000000000000000000000000000000000000000001001
Packet address request from CPU: 80704
Packet address request from CPU in binary: 0000000000000000000000000000000000000000000000010011101101000000
Region DBI tag of the packet address: 9
regTag in binary: 0000000000000000000000000000000000000000000000000000000000001001
Packet address request from CPU: 80768
Packet address request from CPU in binary: 0000000000000000000000000000000000000000000000010011101110000000
Region DBI tag of the packet address: 9
regTag in binary: 0000000000000000000000000000000000000000000000000000000000001001
Packet address request from CPU: 80832
Packet address request from CPU in binary: 0000000000000000000000000000000000000000000000010011101111000000
Region DBI tag of the packet address: 9
regTag in binary: 0000000000000000000000000000000000000000000000000000000000001001
Packet address request from CPU: 80896
Packet address request from CPU in binary: 0000000000000000000000000000000000000000000000010011110000000000
Region DBI tag of the packet address: 9
regTag in binary: 0000000000000000000000000000000000000000000000000000000000001001
Packet address request from CPU: 80960
Packet address request from CPU in binary: 0000000000000000000000000000000000000000000000010011110001000000
Region DBI tag of the packet address: 9
regTag in binary: 0000000000000000000000000000000000000000000000000000000000001001
Packet address request from CPU: 81024
Packet address request from CPU in binary: 0000000000000000000000000000000000000000000000010011110010000000
Region DBI tag of the packet address: 9
regTag in binary: 0000000000000000000000000000000000000000000000000000000000001001
Packet address request from CPU: 81088
Packet address request from CPU in binary: 0000000000000000000000000000000000000000000000010011110011000000
Region DBI tag of the packet address: 9
regTag in binary: 0000000000000000000000000000000000000000000000000000000000001001
Packet address request from CPU: 81152
Packet address request from CPU in binary: 0000000000000000000000000000000000000000000000010011110100000000
Region DBI tag of the packet address: 9
regTag in binary: 0000000000000000000000000000000000000000000000000000000000001001
Packet address request from CPU: 81600
Packet address request from CPU in binary: 0000000000000000000000000000000000000000000000010011111011000000
Region DBI tag of the packet address: 9
regTag in binary: 0000000000000000000000000000000000000000000000000000000000001001
Packet address request from CPU: 81664
Packet address request from CPU in binary: 0000000000000000000000000000000000000000000000010011111100000000
Region DBI tag of the packet address: 9
regTag in binary: 0000000000000000000000000000000000000000000000000000000000001001
Packet address request from CPU: 81280
Packet address request from CPU in binary: 0000000000000000000000000000000000000000000000010011110110000000
Region DBI tag of the packet address: 9
regTag in binary: 0000000000000000000000000000000000000000000000000000000000001001
Packet address request from CPU: 81344
Packet address request from CPU in binary: 0000000000000000000000000000000000000000000000010011110111000000
Region DBI tag of the packet address: 9
regTag in binary: 0000000000000000000000000000000000000000000000000000000000001001
Packet address request from CPU: 81408
Packet address request from CPU in binary: 0000000000000000000000000000000000000000000000010011111000000000
Region DBI tag of the packet address: 9
regTag in binary: 0000000000000000000000000000000000000000000000000000000000001001
Packet address request from CPU: 81472
Packet address request from CPU in binary: 0000000000000000000000000000000000000000000000010011111001000000
Region DBI tag of the packet address: 9
regTag in binary: 0000000000000000000000000000000000000000000000000000000000001001
Packet address request from CPU: 81536
Packet address request from CPU in binary: 0000000000000000000000000000000000000000000000010011111010000000
Region DBI tag of the packet address: 9
regTag in binary: 0000000000000000000000000000000000000000000000000000000000001001
Packet address request from CPU: 81792
Packet address request from CPU in binary: 0000000000000000000000000000000000000000000000010011111110000000
Region DBI tag of the packet address: 9
regTag in binary: 0000000000000000000000000000000000000000000000000000000000001001
Packet address request from CPU: 462720
Packet address request from CPU in binary: 0000000000000000000000000000000000000000000001110000111110000000
Region DBI tag of the packet address: 56
regTag in binary: 0000000000000000000000000000000000000000000000000000000000111000
Packet address request from CPU: 602880
Packet address request from CPU in binary: 0000000000000000000000000000000000000000000010010011001100000000
Region DBI tag of the packet address: 73
regTag in binary: 0000000000000000000000000000000000000000000000000000000001001001
Packet address request from CPU: 602112
Packet address request from CPU in binary: 0000000000000000000000000000000000000000000010010011000000000000
Region DBI tag of the packet address: 73
regTag in binary: 0000000000000000000000000000000000000000000000000000000001001001
Packet address request from CPU: 602176
Packet address request from CPU in binary: 0000000000000000000000000000000000000000000010010011000001000000
Region DBI tag of the packet address: 73
regTag in binary: 0000000000000000000000000000000000000000000000000000000001001001
Packet address request from CPU: 602688
Packet address request from CPU in binary: 0000000000000000000000000000000000000000000010010011001001000000
Region DBI tag of the packet address: 73
regTag in binary: 0000000000000000000000000000000000000000000000000000000001001001
Packet address request from CPU: 602752
Packet address request from CPU in binary: 0000000000000000000000000000000000000000000010010011001010000000
Region DBI tag of the packet address: 73
regTag in binary: 0000000000000000000000000000000000000000000000000000000001001001
Packet address request from CPU: 431936
Packet address request from CPU in binary: 0000000000000000000000000000000000000000000001101001011101000000
Region DBI tag of the packet address: 52
regTag in binary: 0000000000000000000000000000000000000000000000000000000000110100
Packet address request from CPU: 602304
Packet address request from CPU in binary: 0000000000000000000000000000000000000000000010010011000011000000
Region DBI tag of the packet address: 73
regTag in binary: 0000000000000000000000000000000000000000000000000000000001001001
Packet address request from CPU: 602368
Packet address request from CPU in binary: 0000000000000000000000000000000000000000000010010011000100000000
Region DBI tag of the packet address: 73
regTag in binary: 0000000000000000000000000000000000000000000000000000000001001001
Packet address request from CPU: 602432
Packet address request from CPU in binary: 0000000000000000000000000000000000000000000010010011000101000000
Region DBI tag of the packet address: 73
regTag in binary: 0000000000000000000000000000000000000000000000000000000001001001
Packet address request from CPU: 602496
Packet address request from CPU in binary: 0000000000000000000000000000000000000000000010010011000110000000
Region DBI tag of the packet address: 73
regTag in binary: 0000000000000000000000000000000000000000000000000000000001001001
Packet address request from CPU: 226624
Packet address request from CPU in binary: 0000000000000000000000000000000000000000000000110111010101000000
Region DBI tag of the packet address: 27
regTag in binary: 0000000000000000000000000000000000000000000000000000000000011011
Packet address request from CPU: 602624
Packet address request from CPU in binary: 0000000000000000000000000000000000000000000010010011001000000000
Region DBI tag of the packet address: 73
regTag in binary: 0000000000000000000000000000000000000000000000000000000001001001
Packet address request from CPU: 256256
Packet address request from CPU in binary: 0000000000000000000000000000000000000000000000111110100100000000
Region DBI tag of the packet address: 31
regTag in binary: 0000000000000000000000000000000000000000000000000000000000011111
Packet address request from CPU: 602944
Packet address request from CPU in binary: 0000000000000000000000000000000000000000000010010011001101000000
Region DBI tag of the packet address: 73
regTag in binary: 0000000000000000000000000000000000000000000000000000000001001001
Packet address request from CPU: 603072
Packet address request from CPU in binary: 0000000000000000000000000000000000000000000010010011001111000000
Region DBI tag of the packet address: 73
regTag in binary: 0000000000000000000000000000000000000000000000000000000001001001
Packet address request from CPU: 603136
Packet address request from CPU in binary: 0000000000000000000000000000000000000000000010010011010000000000
Region DBI tag of the packet address: 73
regTag in binary: 0000000000000000000000000000000000000000000000000000000001001001
Packet address request from CPU: 603008
Packet address request from CPU in binary: 0000000000000000000000000000000000000000000010010011001110000000
Region DBI tag of the packet address: 73
regTag in binary: 0000000000000000000000000000000000000000000000000000000001001001
Packet address request from CPU: 508992
Packet address request from CPU in binary: 0000000000000000000000000000000000000000000001111100010001000000
Region DBI tag of the packet address: 62
regTag in binary: 0000000000000000000000000000000000000000000000000000000000111110
Packet address request from CPU: 502080
Packet address request from CPU in binary: 0000000000000000000000000000000000000000000001111010100101000000
Region DBI tag of the packet address: 61
regTag in binary: 0000000000000000000000000000000000000000000000000000000000111101
Packet address request from CPU: 508800
Packet address request from CPU in binary: 0000000000000000000000000000000000000000000001111100001110000000
Region DBI tag of the packet address: 62
regTag in binary: 0000000000000000000000000000000000000000000000000000000000111110
Packet address request from CPU: 508864
Packet address request from CPU in binary: 0000000000000000000000000000000000000000000001111100001111000000
Region DBI tag of the packet address: 62
regTag in binary: 0000000000000000000000000000000000000000000000000000000000111110
Packet address request from CPU: 502208
Packet address request from CPU in binary: 0000000000000000000000000000000000000000000001111010100111000000
Region DBI tag of the packet address: 61
regTag in binary: 0000000000000000000000000000000000000000000000000000000000111101
Packet address request from CPU: 502144
Packet address request from CPU in binary: 0000000000000000000000000000000000000000000001111010100110000000
Region DBI tag of the packet address: 61
regTag in binary: 0000000000000000000000000000000000000000000000000000000000111101
Packet address request from CPU: 603200
Packet address request from CPU in binary: 0000000000000000000000000000000000000000000010010011010001000000
Region DBI tag of the packet address: 73
regTag in binary: 0000000000000000000000000000000000000000000000000000000001001001
Packet address request from CPU: 603264
Packet address request from CPU in binary: 0000000000000000000000000000000000000000000010010011010010000000
Region DBI tag of the packet address: 73
regTag in binary: 0000000000000000000000000000000000000000000000000000000001001001
Packet address request from CPU: 256192
Packet address request from CPU in binary: 0000000000000000000000000000000000000000000000111110100011000000
Region DBI tag of the packet address: 31
regTag in binary: 0000000000000000000000000000000000000000000000000000000000011111
