Global frequency set at 1000000000000 ticks per second
Hey, I am a DBICache component + Deepanjali
gem5 Simulator System.  https://www.gem5.org
gem5 is copyrighted software; use the --copyright option for details.

gem5 version 22.0.0.2
gem5 compiled Mar 28 2023 05:45:44
gem5 started Mar 28 2023 05:47:18
gem5 executing on v100-gpu-4, pid 14729
command line: build/X86/gem5.opt --stats-file =trew_dbi.txt configs/learning_gem5/DebugDBI/DBICache/config.py test-benchmark/test -n 1000000 -k 4 -t 10

Beginning simulation!
Setting Dirty, Packet address: 2ce00
Setting Dirty, Packet address: 3c740
Number of elements: 1000000, Number of cache blocks: 4, Number of iterations: 10
Setting Dirty, Packet address: 41440
Setting Dirty, Packet address: 37900
Setting Dirty, Packet address: 3fc40
Setting Dirty, Packet address: 3fcc0
Setting Dirty, Packet address: 386c0
Setting Dirty, Packet address: 38780
Setting Dirty, Packet address: 41780
Setting Dirty, Packet address: 41cc0
Setting Dirty, Packet address: 29d80
Setting Dirty, Packet address: 29e80
Setting Dirty, Packet address: 2b500
Setting Dirty, Packet address: 2bc40
Setting Dirty, Packet address: 3c700
Setting Dirty, Packet address: 2cac0
Setting Dirty, Packet address: 3cbc0
Setting Dirty, Packet address: 3cc00
Setting Dirty, Packet address: 3cc80
Setting Dirty, Packet address: 3cec0
Setting Dirty, Packet address: 3e180
Setting Dirty, Packet address: 37500
Setting Dirty, Packet address: 8f540
Setting Dirty, Packet address: 3f7c0
Setting Dirty, Packet address: 3f800
Setting Dirty, Packet address: 3f880
Setting Dirty, Packet address: 37b00
Setting Dirty, Packet address: 8fc40
Setting Dirty, Packet address: 8fc80
Setting Dirty, Packet address: 3fe40
Setting Dirty, Packet address: 37e80
Setting Dirty, Packet address: 3fec0
Setting Dirty, Packet address: 37f80
Setting Dirty, Packet address: 380c0
Setting Dirty, Packet address: 90640
Setting Dirty, Packet address: 38680
Setting Dirty, Packet address: 90700
Setting Dirty, Packet address: 41280
Setting Dirty, Packet address: 69780
Setting Dirty, Packet address: 41ac0
Setting Dirty, Packet address: 91e80
Setting Dirty, Packet address: 92180
Setting Dirty, Packet address: 924c0
Setting Dirty, Packet address: 2b140
Setting Dirty, Packet address: 93180
Setting Dirty, Packet address: 2b440
Setting Dirty, Packet address: 93780
Setting Dirty, Packet address: 2b980
Setting Dirty, Packet address: 2bb80
Setting Dirty, Packet address: 2c080
Setting Dirty, Packet address: 2c140
Setting Dirty, Packet address: 2c700
Setting Dirty, Packet address: 3c780
Setting Dirty, Packet address: 2c800
Setting Dirty, Packet address: 3c8c0
Setting Dirty, Packet address: 3c940
Setting Dirty, Packet address: 3ca00
Setting Dirty, Packet address: 3ca80
Setting Dirty, Packet address: 3cb00
Setting Dirty, Packet address: 3cb80
Setting Dirty, Packet address: 2cc00
Setting Dirty, Packet address: 3cf40
Setting Dirty, Packet address: 3cf80
Setting Dirty, Packet address: 45200
Setting Dirty, Packet address: 91440
Setting Dirty, Packet address: 45800
Setting Dirty, Packet address: 91c80
Setting Dirty, Packet address: 41f00
Setting Dirty, Packet address: 96440
Setting Dirty, Packet address: 365c0
Setting Dirty, Packet address: 368c0
Setting Dirty, Packet address: 37300
Setting Dirty, Packet address: 373c0
Setting Dirty, Packet address: 37440
Setting Dirty, Packet address: 37480
Setting Dirty, Packet address: 97540
Setting Dirty, Packet address: 975c0
Setting Dirty, Packet address: 8f7c0
Setting Dirty, Packet address: 3f8c0
Setting Dirty, Packet address: 8f940
Setting Dirty, Packet address: 37980
Setting Dirty, Packet address: 3fa80
Setting Dirty, Packet address: 8fcc0
Setting Dirty, Packet address: 37d80
Setting Dirty, Packet address: 3fe00
Setting Dirty, Packet address: 8fec0
Setting Dirty, Packet address: 8ff00
Setting Dirty, Packet address: 38480
Setting Dirty, Packet address: 38540
Setting Dirty, Packet address: 385c0
Setting Dirty, Packet address: 387c0
Setting Dirty, Packet address: 90900
Setting Dirty, Packet address: 90bc0
Setting Dirty, Packet address: 98f80
Setting Dirty, Packet address: 41400
Setting Dirty, Packet address: 91700
Setting Dirty, Packet address: 91780
Setting Dirty, Packet address: 417c0
Setting Dirty, Packet address: 99840
Setting Dirty, Packet address: 91ac0
Setting Dirty, Packet address: 91b00
Setting Dirty, Packet address: 91b80
Setting Dirty, Packet address: 29c80
Setting Dirty, Packet address: 41e80
Setting Dirty, Packet address: 99ec0
Setting Dirty, Packet address: 91f00
Setting Dirty, Packet address: 92000
Setting Dirty, Packet address: 9a100
Setting Dirty, Packet address: 92300
Setting Dirty, Packet address: 92540
Setting Dirty, Packet address: 92780
Setting Dirty, Packet address: 2aa80
Setting Dirty, Packet address: 92b40
Setting Dirty, Packet address: 92cc0
Setting Dirty, Packet address: 92d80
Setting Dirty, Packet address: 9ae80
Setting Dirty, Packet address: 9b080
Setting Dirty, Packet address: 9b0c0
Setting Dirty, Packet address: 2b180
Setting Dirty, Packet address: 2b1c0
Setting Dirty, Packet address: 93280
Setting Dirty, Packet address: 9b2c0
Setting Dirty, Packet address: 2b400
Setting Dirty, Packet address: 93440
Setting Dirty, Packet address: 2b5c0
Setting Dirty, Packet address: 9b800
Setting Dirty, Packet address: 93980
Setting Dirty, Packet address: 93b00
Setting Dirty, Packet address: 9bb40
Setting Dirty, Packet address: 2bbc0
Setting Dirty, Packet address: 94040
Setting Dirty, Packet address: 941c0
Setting Dirty, Packet address: 9c200
Setting Dirty, Packet address: 94280
Setting Dirty, Packet address: 9c5c0
Setting Dirty, Packet address: 2c6c0
Setting Dirty, Packet address: 2c740
Setting Dirty, Packet address: 3c7c0
Setting Dirty, Packet address: 9c800
Setting Dirty, Packet address: 9c880
Setting Dirty, Packet address: 94940
Setting Dirty, Packet address: 94980
Setting Dirty, Packet address: 2cb40
Setting Dirty, Packet address: 9cbc0
Setting Dirty, Packet address: 9cc40
Setting Dirty, Packet address: 3ccc0
Setting Dirty, Packet address: 2cd40
Setting Dirty, Packet address: 94f80
Setting Dirty, Packet address: 9cfc0
Setting Dirty, Packet address: 3d000
Setting Dirty, Packet address: 95200
Setting Dirty, Packet address: 9d600
Setting Dirty, Packet address: 9d880
Setting Dirty, Packet address: 45980
Setting Dirty, Packet address: 95a40
Setting Dirty, Packet address: 95b80
Setting Dirty, Packet address: 9dd80
Setting Dirty, Packet address: 36140
Setting Dirty, Packet address: 3e3c0
Setting Dirty, Packet address: 36440
Setting Dirty, Packet address: 964c0
Setting Dirty, Packet address: 36500
Setting Dirty, Packet address: 36740
Setting Dirty, Packet address: 9eac0
Setting Dirty, Packet address: 3ec80
Setting Dirty, Packet address: 3ecc0
Setting Dirty, Packet address: 9ed40
Setting Dirty, Packet address: 3edc0
Setting Dirty, Packet address: 3ee00
Setting Dirty, Packet address: 87040
Setting Dirty, Packet address: 37080
Setting Dirty, Packet address: 971c0
Setting Dirty, Packet address: 97200
Setting Dirty, Packet address: 97240
Setting Dirty, Packet address: 67300
Setting Dirty, Packet address: 37340
Setting Dirty, Packet address: 97380
Setting Dirty, Packet address: 8f3c0
Setting Dirty, Packet address: 8f440
Setting Dirty, Packet address: 9f480
Setting Dirty, Packet address: 974c0
Setting Dirty, Packet address: 8f580
Setting Dirty, Packet address: 8f680
Setting Dirty, Packet address: 3f840
Setting Dirty, Packet address: 979c0
Setting Dirty, Packet address: 97a40
Setting Dirty, Packet address: 37a80
Setting Dirty, Packet address: 8fac0
Setting Dirty, Packet address: 97c00
Setting Dirty, Packet address: 97c40
Setting Dirty, Packet address: 9bc40
Setting Dirty, Packet address: 37c80
Setting Dirty, Packet address: 9fd80
Setting Dirty, Packet address: 8fdc0
Setting Dirty, Packet address: 97ec0
Setting Dirty, Packet address: 3ff40
Setting Dirty, Packet address: 97f80
Setting Dirty, Packet address: 37fc0
Setting Dirty, Packet address: 38000
Setting Dirty, Packet address: 90040
Setting Dirty, Packet address: 90080
Setting Dirty, Packet address: 90100
Setting Dirty, Packet address: 90140
Setting Dirty, Packet address: 38180
Setting Dirty, Packet address: a01c0
Setting Dirty, Packet address: 38240
Setting Dirty, Packet address: 38300
Setting Dirty, Packet address: 983c0
Setting Dirty, Packet address: 90400
Setting Dirty, Packet address: 90480
Setting Dirty, Packet address: 98540
Setting Dirty, Packet address: 90680
Setting Dirty, Packet address: 98700
Setting Dirty, Packet address: 38980
Setting Dirty, Packet address: a0b80
Setting Dirty, Packet address: 90ec0
Setting Dirty, Packet address: 98f00
Setting Dirty, Packet address: 80f80
Setting Dirty, Packet address: a1000
Setting Dirty, Packet address: 912c0
Setting Dirty, Packet address: 415c0
Setting Dirty, Packet address: 41600
Setting Dirty, Packet address: 99680
Setting Dirty, Packet address: 91740
Setting Dirty, Packet address: 99800
Setting Dirty, Packet address: 99980
Setting Dirty, Packet address: 419c0
Setting Dirty, Packet address: 41b80
Setting Dirty, Packet address: 41bc0
Setting Dirty, Packet address: a1c00
Setting Dirty, Packet address: 41d00
Setting Dirty, Packet address: a1dc0
Setting Dirty, Packet address: 99e00
Setting Dirty, Packet address: 99e80
Setting Dirty, Packet address: 69ec0
Setting Dirty, Packet address: 69f40
Setting Dirty, Packet address: 29fc0
Setting Dirty, Packet address: 9a0c0
Setting Dirty, Packet address: 3e380
Setting Dirty, Packet address: a23c0
Setting Dirty, Packet address: 92440
Setting Dirty, Packet address: 9a480
Setting Dirty, Packet address: 92680
Setting Dirty, Packet address: 9a8c0
Setting Dirty, Packet address: 2a980
Setting Dirty, Packet address: a29c0
Setting Dirty, Packet address: 92a80
Setting Dirty, Packet address: 9aac0
Setting Dirty, Packet address: 2ab80
Setting Dirty, Packet address: a2c40
Setting Dirty, Packet address: 2ad00
Setting Dirty, Packet address: 92dc0
Setting Dirty, Packet address: 2ae00
Setting Dirty, Packet address: a2f40
Setting Dirty, Packet address: 2b000
Setting Dirty, Packet address: 2b080
Setting Dirty, Packet address: a3100
Setting Dirty, Packet address: 2b240
Setting Dirty, Packet address: 372c0
Setting Dirty, Packet address: 9b340
Setting Dirty, Packet address: 9b380
Setting Dirty, Packet address: 93400
Setting Dirty, Packet address: 9b540
Setting Dirty, Packet address: a3680
Setting Dirty, Packet address: a3840
Setting Dirty, Packet address: 9b900
Setting Dirty, Packet address: 939c0
Setting Dirty, Packet address: a39c0
Setting Dirty, Packet address: 9ba80
Setting Dirty, Packet address: 9bc80
Setting Dirty, Packet address: 93d40
Setting Dirty, Packet address: 93e40
Setting Dirty, Packet address: a3e80
Setting Dirty, Packet address: a4100
Setting Dirty, Packet address: 94140
Setting Dirty, Packet address: 9c280
Setting Dirty, Packet address: 2c340
Setting Dirty, Packet address: 2c3c0
Setting Dirty, Packet address: a4400
Setting Dirty, Packet address: 2c4c0
Setting Dirty, Packet address: 9c500
Setting Dirty, Packet address: 94580
Setting Dirty, Packet address: 9c600
Setting Dirty, Packet address: 2c640
Setting Dirty, Packet address: 3c6c0
Setting Dirty, Packet address: 3c800
Setting Dirty, Packet address: 94840
Setting Dirty, Packet address: 3c880
Setting Dirty, Packet address: a4900
Setting Dirty, Packet address: 3c9c0
Setting Dirty, Packet address: a4a00
Setting Dirty, Packet address: 2ca40
Setting Dirty, Packet address: 94b00
Setting Dirty, Packet address: 9cb40
Setting Dirty, Packet address: a4c00
Setting Dirty, Packet address: 9cc80
Setting Dirty, Packet address: 94d00
Setting Dirty, Packet address: a4d80
Setting Dirty, Packet address: 3ce00
Setting Dirty, Packet address: 94e40
Setting Dirty, Packet address: 94ec0
Setting Dirty, Packet address: 94f00
Setting Dirty, Packet address: 3cfc0
Setting Dirty, Packet address: 9d1c0
Setting Dirty, Packet address: 952c0
Setting Dirty, Packet address: 9d300
Setting Dirty, Packet address: a5400
Setting Dirty, Packet address: 95440
Setting Dirty, Packet address: 45480
Setting Dirty, Packet address: 455c0
Setting Dirty, Packet address: 95600
Setting Dirty, Packet address: 95640
Setting Dirty, Packet address: 45740
Setting Dirty, Packet address: 9d780
Setting Dirty, Packet address: 95800
Setting Dirty, Packet address: 9d840
Setting Dirty, Packet address: 9d8c0
Setting Dirty, Packet address: 95a00
Setting Dirty, Packet address: 9da40
Setting Dirty, Packet address: 95ac0
Setting Dirty, Packet address: 9dbc0
Setting Dirty, Packet address: a5c40
Setting Dirty, Packet address: 9dd00
Setting Dirty, Packet address: 95d80
Setting Dirty, Packet address: 9de00
Setting Dirty, Packet address: 45e40
Setting Dirty, Packet address: 45f00
Setting Dirty, Packet address: a1f40
Setting Dirty, Packet address: 95fc0
Setting Dirty, Packet address: 9e000
Setting Dirty, Packet address: 9e040
Setting Dirty, Packet address: 9e080
Setting Dirty, Packet address: 361c0
Setting Dirty, Packet address: 9e200
Setting Dirty, Packet address: 96240
Setting Dirty, Packet address: 362c0
Setting Dirty, Packet address: 36340
Setting Dirty, Packet address: 92380
Setting Dirty, Packet address: 9e440
Setting Dirty, Packet address: 36480
Setting Dirty, Packet address: 96500
Setting Dirty, Packet address: 36540
Setting Dirty, Packet address: 3e580
Setting Dirty, Packet address: 965c0
Setting Dirty, Packet address: 36600
Setting Dirty, Packet address: 3e780
Setting Dirty, Packet address: 968c0
Setting Dirty, Packet address: 9e900
Setting Dirty, Packet address: 9ebc0
Setting Dirty, Packet address: 9ec00
Setting Dirty, Packet address: 9ec80
Setting Dirty, Packet address: 96cc0
Setting Dirty, Packet address: 96d80
Setting Dirty, Packet address: 3ee40
Setting Dirty, Packet address: 97040
Setting Dirty, Packet address: 97080
Setting Dirty, Packet address: 93140
Setting Dirty, Packet address: 9f180
Setting Dirty, Packet address: 8f1c0
Setting Dirty, Packet address: 9f2c0
Setting Dirty, Packet address: 9f340
Setting Dirty, Packet address: 8f380
Setting Dirty, Packet address: 97480
Setting Dirty, Packet address: a74c0
Setting Dirty, Packet address: 375c0
Setting Dirty, Packet address: 8f640
Setting Dirty, Packet address: 97680
Setting Dirty, Packet address: 37700
Setting Dirty, Packet address: 8f800
Setting Dirty, Packet address: 9f840
Setting Dirty, Packet address: 378c0
Setting Dirty, Packet address: 97900
Setting Dirty, Packet address: 97a00
Setting Dirty, Packet address: 3fac0
Setting Dirty, Packet address: 8fb40
Setting Dirty, Packet address: 97bc0
Setting Dirty, Packet address: 8fbc0
Setting Dirty, Packet address: 8fc00
Setting Dirty, Packet address: 97c80
Setting Dirty, Packet address: 8fd00
Setting Dirty, Packet address: 8fd40
Setting Dirty, Packet address: 8fe00
Setting Dirty, Packet address: 8fe40
Setting Dirty, Packet address: 97e80
Setting Dirty, Packet address: 9ff00
Setting Dirty, Packet address: 97f40
Setting Dirty, Packet address: 98040
Setting Dirty, Packet address: 98080
Setting Dirty, Packet address: 903c0
Setting Dirty, Packet address: 38440
Setting Dirty, Packet address: 90540
Setting Dirty, Packet address: 38580
Setting Dirty, Packet address: a0640
Setting Dirty, Packet address: a0700
Setting Dirty, Packet address: a87c0
Setting Dirty, Packet address: 38840
Setting Dirty, Packet address: 38880
Setting Dirty, Packet address: 988c0
Setting Dirty, Packet address: a0900
Setting Dirty, Packet address: 98940
Setting Dirty, Packet address: 389c0
Setting Dirty, Packet address: 38a00
Setting Dirty, Packet address: 38a80
Setting Dirty, Packet address: 90c00
Setting Dirty, Packet address: 90cc0
Setting Dirty, Packet address: a0d80
Setting Dirty, Packet address: 98dc0
Setting Dirty, Packet address: 38f00
Setting Dirty, Packet address: a0f40
Setting Dirty, Packet address: 90f80
Setting Dirty, Packet address: a10c0
Setting Dirty, Packet address: 91100
Setting Dirty, Packet address: 99200
Setting Dirty, Packet address: 41340
Setting Dirty, Packet address: a1380
Setting Dirty, Packet address: a1400
Setting Dirty, Packet address: 99480
Setting Dirty, Packet address: a9500
Setting Dirty, Packet address: 91580
Setting Dirty, Packet address: 41640
Setting Dirty, Packet address: 996c0
Setting Dirty, Packet address: 41740
Setting Dirty, Packet address: 41800
Setting Dirty, Packet address: 41840
Setting Dirty, Packet address: 41880
Setting Dirty, Packet address: a98c0
Setting Dirty, Packet address: a1900
Setting Dirty, Packet address: 41a80
Setting Dirty, Packet address: a9bc0
Setting Dirty, Packet address: a9c40
Setting Dirty, Packet address: 41c80
Setting Dirty, Packet address: 91cc0
Setting Dirty, Packet address: 91d00
Setting Dirty, Packet address: a1d40
Setting Dirty, Packet address: a9dc0
Setting Dirty, Packet address: 99e40
Setting Dirty, Packet address: 69e80
Setting Dirty, Packet address: 41f40
Setting Dirty, Packet address: 29f80
Setting Dirty, Packet address: 91fc0
Setting Dirty, Packet address: 9a000
Setting Dirty, Packet address: 92040
Setting Dirty, Packet address: 92080
Setting Dirty, Packet address: 92100
Setting Dirty, Packet address: a2140
Setting Dirty, Packet address: aa240
Setting Dirty, Packet address: 9a280
Setting Dirty, Packet address: a22c0
Setting Dirty, Packet address: a2300
Setting Dirty, Packet address: 9a380
Setting Dirty, Packet address: 9a3c0
Setting Dirty, Packet address: aa440
Setting Dirty, Packet address: aa480
Setting Dirty, Packet address: 926c0
Setting Dirty, Packet address: aa740
Setting Dirty, Packet address: 927c0
Setting Dirty, Packet address: a2980
Setting Dirty, Packet address: aaa40
Setting Dirty, Packet address: 9aa80
Setting Dirty, Packet address: a2b40
Setting Dirty, Packet address: 9ac00
Setting Dirty, Packet address: 9ac40
Setting Dirty, Packet address: a2c80
Setting Dirty, Packet address: a2cc0
Setting Dirty, Packet address: 9ad00
Setting Dirty, Packet address: aad40
Setting Dirty, Packet address: 2adc0
Setting Dirty, Packet address: 9ae00
Setting Dirty, Packet address: a6e80
Setting Dirty, Packet address: 9aec0
Setting Dirty, Packet address: 92f80
Setting Dirty, Packet address: 9b040
Setting Dirty, Packet address: 9b140
Setting Dirty, Packet address: ab200
Setting Dirty, Packet address: 93300
Setting Dirty, Packet address: ab480
Setting Dirty, Packet address: 9b4c0
Setting Dirty, Packet address: a3540
Setting Dirty, Packet address: a35c0
Setting Dirty, Packet address: 2b600
Setting Dirty, Packet address: a3640
Setting Dirty, Packet address: 9b680
Setting Dirty, Packet address: 2b6c0
Setting Dirty, Packet address: a3700
Setting Dirty, Packet address: 93940
Setting Dirty, Packet address: 9ba40
Setting Dirty, Packet address: a3b00
Setting Dirty, Packet address: a3b80
Setting Dirty, Packet address: a3c80
Setting Dirty, Packet address: a3cc0
Setting Dirty, Packet address: abd00
Setting Dirty, Packet address: a3dc0
Setting Dirty, Packet address: 93ec0
Setting Dirty, Packet address: 93f80
Setting Dirty, Packet address: 97fc0
Setting Dirty, Packet address: 2c040
Setting Dirty, Packet address: a4080
Setting Dirty, Packet address: ac140
Setting Dirty, Packet address: a4180
Setting Dirty, Packet address: ac200
Setting Dirty, Packet address: ac280
Setting Dirty, Packet address: 942c0
Setting Dirty, Packet address: 9c340
Setting Dirty, Packet address: 9c380
Setting Dirty, Packet address: 94480
Setting Dirty, Packet address: 9c4c0
Setting Dirty, Packet address: 38500
Setting Dirty, Packet address: 94600
Setting Dirty, Packet address: 94640
Setting Dirty, Packet address: 94680
Setting Dirty, Packet address: 946c0
Setting Dirty, Packet address: 94780
Setting Dirty, Packet address: 3c840
Setting Dirty, Packet address: 94a00
Setting Dirty, Packet address: 3cb40
Setting Dirty, Packet address: a4b80
Setting Dirty, Packet address: a4c40
Setting Dirty, Packet address: 94c80
Setting Dirty, Packet address: 94cc0
Setting Dirty, Packet address: a4d00
Setting Dirty, Packet address: 3cd40
Setting Dirty, Packet address: 9cdc0
Setting Dirty, Packet address: 3ce40
Setting Dirty, Packet address: a4ec0
Setting Dirty, Packet address: acfc0
Setting Dirty, Packet address: a5000
Setting Dirty, Packet address: a5040
Setting Dirty, Packet address: 45080
Setting Dirty, Packet address: 95180
Setting Dirty, Packet address: 951c0
Setting Dirty, Packet address: ad200
Setting Dirty, Packet address: 95240
Setting Dirty, Packet address: 95280
Setting Dirty, Packet address: 452c0
Setting Dirty, Packet address: ad300
Setting Dirty, Packet address: 9d400
Setting Dirty, Packet address: a5480
Setting Dirty, Packet address: a5500
Setting Dirty, Packet address: 9d540
Setting Dirty, Packet address: a55c0
Setting Dirty, Packet address: a5640
Setting Dirty, Packet address: 9d680
Setting Dirty, Packet address: ad800
Setting Dirty, Packet address: ad940
Setting Dirty, Packet address: ad9c0
Setting Dirty, Packet address: 45a00
Setting Dirty, Packet address: a5a40
Setting Dirty, Packet address: 45ac0
Setting Dirty, Packet address: 95b00
Setting Dirty, Packet address: 9db80
Setting Dirty, Packet address: 45c80
Setting Dirty, Packet address: addc0
Setting Dirty, Packet address: 95e80
Setting Dirty, Packet address: a5f00
Setting Dirty, Packet address: 45f80
Setting Dirty, Packet address: a5fc0
Setting Dirty, Packet address: 3e000
Setting Dirty, Packet address: 96100
Setting Dirty, Packet address: 96140
Setting Dirty, Packet address: 36180
Setting Dirty, Packet address: 961c0
Setting Dirty, Packet address: 9e280
Setting Dirty, Packet address: ae380
Setting Dirty, Packet address: 9e3c0
Setting Dirty, Packet address: 9e400
Setting Dirty, Packet address: 3e600
Setting Dirty, Packet address: 96700
Setting Dirty, Packet address: 36780
Setting Dirty, Packet address: 367c0
Setting Dirty, Packet address: 96880
Setting Dirty, Packet address: 3e980
Setting Dirty, Packet address: 9eb00
Setting Dirty, Packet address: a6bc0
Setting Dirty, Packet address: 96c00
Setting Dirty, Packet address: 96c80
Setting Dirty, Packet address: aed80
Setting Dirty, Packet address: 9edc0
Setting Dirty, Packet address: a6e00
Setting Dirty, Packet address: aee40
Setting Dirty, Packet address: 9eec0
Setting Dirty, Packet address: 3ef00
Setting Dirty, Packet address: aef80
Setting Dirty, Packet address: 8f000
Setting Dirty, Packet address: 970c0
Setting Dirty, Packet address: 37140
Setting Dirty, Packet address: 37180
Setting Dirty, Packet address: af1c0
Setting Dirty, Packet address: af200
Setting Dirty, Packet address: 37240
Setting Dirty, Packet address: a7300
Setting Dirty, Packet address: 9f380
Setting Dirty, Packet address: af440
Setting Dirty, Packet address: 8f500
Setting Dirty, Packet address: af580
Setting Dirty, Packet address: 8f5c0
Setting Dirty, Packet address: 97600
Setting Dirty, Packet address: 9f680
Setting Dirty, Packet address: 8f6c0
Setting Dirty, Packet address: af700
Setting Dirty, Packet address: a7780
Setting Dirty, Packet address: 97800
Setting Dirty, Packet address: 97880
Setting Dirty, Packet address: a78c0
Setting Dirty, Packet address: 3f900
Setting Dirty, Packet address: a7980
Setting Dirty, Packet address: 8f9c0
Setting Dirty, Packet address: 37a00
Setting Dirty, Packet address: 8fa40
Setting Dirty, Packet address: a7b00
Setting Dirty, Packet address: 3fb40
Setting Dirty, Packet address: 9fb80
Setting Dirty, Packet address: 3fbc0
Setting Dirty, Packet address: afc00
Setting Dirty, Packet address: afcc0
Setting Dirty, Packet address: 9fd00
Setting Dirty, Packet address: 97d40
Setting Dirty, Packet address: 8fd80
Setting Dirty, Packet address: a7dc0
Setting Dirty, Packet address: 8ff40
Setting Dirty, Packet address: a8000
Setting Dirty, Packet address: 98000
Setting Dirty, Packet address: 38040
Setting Dirty, Packet address: 38100
Setting Dirty, Packet address: 981c0
Setting Dirty, Packet address: 38200
Setting Dirty, Packet address: a8240
Setting Dirty, Packet address: 38280
Setting Dirty, Packet address: 902c0
Setting Dirty, Packet address: 98300
Setting Dirty, Packet address: 38340
Setting Dirty, Packet address: 90380
Setting Dirty, Packet address: 98400
Setting Dirty, Packet address: a0400
Setting Dirty, Packet address: 98440
Setting Dirty, Packet address: 384c0
Setting Dirty, Packet address: 98500
Setting Dirty, Packet address: a8540
Setting Dirty, Packet address: a8580
Setting Dirty, Packet address: 38640
Setting Dirty, Packet address: a0680
Setting Dirty, Packet address: a8780
Setting Dirty, Packet address: 907c0
Setting Dirty, Packet address: a0880
Setting Dirty, Packet address: b0880
Setting Dirty, Packet address: 388c0
Setting Dirty, Packet address: b0900
Setting Dirty, Packet address: b0940
Setting Dirty, Packet address: 98a80
Setting Dirty, Packet address: 90ac0
Setting Dirty, Packet address: a0b00
Setting Dirty, Packet address: 90b40
Setting Dirty, Packet address: 90b80
Setting Dirty, Packet address: a0c80
Setting Dirty, Packet address: a8cc0
Setting Dirty, Packet address: a8d00
Setting Dirty, Packet address: a8d40
Setting Dirty, Packet address: 90dc0
Setting Dirty, Packet address: a8e40
Setting Dirty, Packet address: a0e80
Setting Dirty, Packet address: a8ec0
Setting Dirty, Packet address: a8f80
Setting Dirty, Packet address: a8fc0
Setting Dirty, Packet address: 69040
Setting Dirty, Packet address: 910c0
Setting Dirty, Packet address: 99100
Setting Dirty, Packet address: 91140
Setting Dirty, Packet address: 411c0
Setting Dirty, Packet address: a1200
Setting Dirty, Packet address: 41240
Setting Dirty, Packet address: 91280
Setting Dirty, Packet address: a12c0
Setting Dirty, Packet address: 99300
Setting Dirty, Packet address: a9340
Setting Dirty, Packet address: 91380
Setting Dirty, Packet address: a93c0
Setting Dirty, Packet address: b1400
Setting Dirty, Packet address: 914c0
Setting Dirty, Packet address: a1500
Setting Dirty, Packet address: a1540
Setting Dirty, Packet address: 99580
Setting Dirty, Packet address: b15c0
Setting Dirty, Packet address: 91600
Setting Dirty, Packet address: 91680
Setting Dirty, Packet address: 916c0
Setting Dirty, Packet address: 41700
Setting Dirty, Packet address: 99780
Setting Dirty, Packet address: a9800
Setting Dirty, Packet address: a18c0
Setting Dirty, Packet address: 99940
Setting Dirty, Packet address: a1940
Setting Dirty, Packet address: a9980
Setting Dirty, Packet address: 91a40
Setting Dirty, Packet address: 91a80
Setting Dirty, Packet address: 41b00
Setting Dirty, Packet address: a9b40
Setting Dirty, Packet address: 41c00
Setting Dirty, Packet address: 45c00
Setting Dirty, Packet address: a1cc0
Setting Dirty, Packet address: 99d80
Setting Dirty, Packet address: 29dc0
Setting Dirty, Packet address: 29e40
Setting Dirty, Packet address: 91f40
Setting Dirty, Packet address: b1f80
Setting Dirty, Packet address: 99fc0
Setting Dirty, Packet address: 2000
Setting Dirty, Packet address: 9a080
Setting Dirty, Packet address: 920c0
Setting Dirty, Packet address: 92140
Setting Dirty, Packet address: 9a180
Setting Dirty, Packet address: 9a1c0
Setting Dirty, Packet address: 9a200
Setting Dirty, Packet address: 92240
Setting Dirty, Packet address: a2280
Setting Dirty, Packet address: 9a2c0
Setting Dirty, Packet address: aa300
Setting Dirty, Packet address: 9a400
Setting Dirty, Packet address: 92480
Setting Dirty, Packet address: 92500
Setting Dirty, Packet address: 9a580
Setting Dirty, Packet address: 925c0
Setting Dirty, Packet address: aa640
Setting Dirty, Packet address: a26c0
Setting Dirty, Packet address: 92700
Setting Dirty, Packet address: 92800
Setting Dirty, Packet address: b2880
Setting Dirty, Packet address: a28c0
Setting Dirty, Packet address: 2a940
Setting Dirty, Packet address: 9a980
Setting Dirty, Packet address: aa9c0
Setting Dirty, Packet address: 9aa00
Setting Dirty, Packet address: 2aa40
Setting Dirty, Packet address: 9ab00
Setting Dirty, Packet address: 9ab40
Setting Dirty, Packet address: b2bc0
Setting Dirty, Packet address: aac00
Setting Dirty, Packet address: 92c40
Setting Dirty, Packet address: aacc0
Setting Dirty, Packet address: 92e00
Setting Dirty, Packet address: 9ae40
Setting Dirty, Packet address: 9af00
Setting Dirty, Packet address: 92f40
Setting Dirty, Packet address: 92fc0
Setting Dirty, Packet address: a3040
Setting Dirty, Packet address: ab080
Setting Dirty, Packet address: ab0c0
Setting Dirty, Packet address: 93100
Setting Dirty, Packet address: b3140
Setting Dirty, Packet address: 9b240
Setting Dirty, Packet address: 9b280
Setting Dirty, Packet address: a32c0
Setting Dirty, Packet address: 93340
Setting Dirty, Packet address: 9b3c0
Setting Dirty, Packet address: 2b4c0
Setting Dirty, Packet address: 9b500
Setting Dirty, Packet address: 2b540
Setting Dirty, Packet address: ab580
Setting Dirty, Packet address: 935c0
Setting Dirty, Packet address: a3600
Setting Dirty, Packet address: a36c0
Setting Dirty, Packet address: 93700
Setting Dirty, Packet address: a3740
Setting Dirty, Packet address: 9b840
Setting Dirty, Packet address: 9b8c0
Setting Dirty, Packet address: ab900
Setting Dirty, Packet address: 93a40
Setting Dirty, Packet address: 2bac0
Setting Dirty, Packet address: 9bb00
Setting Dirty, Packet address: abb80
Setting Dirty, Packet address: 93c00
Setting Dirty, Packet address: a3c40
Setting Dirty, Packet address: abcc0
Setting Dirty, Packet address: 97cc0
Setting Dirty, Packet address: 2bd00
Setting Dirty, Packet address: a3d40
Setting Dirty, Packet address: 9be00
Setting Dirty, Packet address: 93f00
Setting Dirty, Packet address: abf40
Setting Dirty, Packet address: abfc0
Setting Dirty, Packet address: a4000
Setting Dirty, Packet address: 9c040
Setting Dirty, Packet address: 9c100
Setting Dirty, Packet address: 94100
Setting Dirty, Packet address: 9c1c0
Setting Dirty, Packet address: a4240
Setting Dirty, Packet address: 2c2c0
Setting Dirty, Packet address: 9c300
Setting Dirty, Packet address: ac340
Setting Dirty, Packet address: b43c0
Setting Dirty, Packet address: 9c400
Setting Dirty, Packet address: 9c440
Setting Dirty, Packet address: a4480
Setting Dirty, Packet address: b4500
Setting Dirty, Packet address: 2c540
Setting Dirty, Packet address: b4600
Setting Dirty, Packet address: ac640
Setting Dirty, Packet address: 9c680
Setting Dirty, Packet address: ac6c0
Setting Dirty, Packet address: 94700
Setting Dirty, Packet address: a4780
Setting Dirty, Packet address: 90800
Setting Dirty, Packet address: ac880
Setting Dirty, Packet address: ac900
Setting Dirty, Packet address: ac940
Setting Dirty, Packet address: 9c9c0
Setting Dirty, Packet address: 94ac0
Setting Dirty, Packet address: b4b00
Setting Dirty, Packet address: a4b40
Setting Dirty, Packet address: acbc0
Setting Dirty, Packet address: b4c80
Setting Dirty, Packet address: a4cc0
Setting Dirty, Packet address: 94d40
Setting Dirty, Packet address: acdc0
Setting Dirty, Packet address: 9ce00
Setting Dirty, Packet address: a4e40
Setting Dirty, Packet address: 9ce80
Setting Dirty, Packet address: a4f40
Setting Dirty, Packet address: 95040
Setting Dirty, Packet address: 950c0
Setting Dirty, Packet address: a5140
Setting Dirty, Packet address: b5340
Setting Dirty, Packet address: 45340
Setting Dirty, Packet address: 9d3c0
Setting Dirty, Packet address: 95400
Setting Dirty, Packet address: b5540
Setting Dirty, Packet address: a5580
Setting Dirty, Packet address: b5600
Setting Dirty, Packet address: 45780
Setting Dirty, Packet address: ad7c0
Setting Dirty, Packet address: a5840
Setting Dirty, Packet address: b5880
Setting Dirty, Packet address: a58c0
Setting Dirty, Packet address: 45900
Setting Dirty, Packet address: a5980
Setting Dirty, Packet address: a5b40
Setting Dirty, Packet address: 95bc0
Setting Dirty, Packet address: b5cc0
Setting Dirty, Packet address: 45d00
Setting Dirty, Packet address: 45d80
Setting Dirty, Packet address: 9ddc0
Setting Dirty, Packet address: 95e00
Setting Dirty, Packet address: 45e80
Setting Dirty, Packet address: b5ec0
Setting Dirty, Packet address: 9df00
Setting Dirty, Packet address: 95f40
Setting Dirty, Packet address: 45fc0
Setting Dirty, Packet address: b6000
Setting Dirty, Packet address: 3e040
Setting Dirty, Packet address: a2040
Setting Dirty, Packet address: 36080
Setting Dirty, Packet address: ae0c0
Setting Dirty, Packet address: 3e200
Setting Dirty, Packet address: ae240
Setting Dirty, Packet address: ae280
Setting Dirty, Packet address: 9e2c0
Setting Dirty, Packet address: 96300
Setting Dirty, Packet address: a6380
Setting Dirty, Packet address: 363c0
Setting Dirty, Packet address: 9e480
Setting Dirty, Packet address: 9e580
Setting Dirty, Packet address: ae600
Setting Dirty, Packet address: 9e640
Setting Dirty, Packet address: 36680
Setting Dirty, Packet address: 366c0
Setting Dirty, Packet address: 96740
Setting Dirty, Packet address: ae7c0
Setting Dirty, Packet address: ae840
Setting Dirty, Packet address: b68c0
Setting Dirty, Packet address: a6940
Setting Dirty, Packet address: 96980
Setting Dirty, Packet address: 969c0
Setting Dirty, Packet address: a6a00
Setting Dirty, Packet address: a6a40
Setting Dirty, Packet address: 96b00
Setting Dirty, Packet address: b6b40
Setting Dirty, Packet address: 96b80
Setting Dirty, Packet address: b6c40
Setting Dirty, Packet address: 9ecc0
Setting Dirty, Packet address: 3ed00
Setting Dirty, Packet address: 96dc0
Setting Dirty, Packet address: 9ee00
Setting Dirty, Packet address: 96e80
Setting Dirty, Packet address: 96ec0
Setting Dirty, Packet address: b6f00
Setting Dirty, Packet address: 96f40
Setting Dirty, Packet address: b6f80
Setting Dirty, Packet address: 96fc0
Setting Dirty, Packet address: 37000
Setting Dirty, Packet address: af040
Setting Dirty, Packet address: b7080
Setting Dirty, Packet address: 370c0
Setting Dirty, Packet address: b7100
Setting Dirty, Packet address: 97140
Setting Dirty, Packet address: 8f180
Setting Dirty, Packet address: 9f200
Setting Dirty, Packet address: 2b200
Setting Dirty, Packet address: a7280
Setting Dirty, Packet address: 972c0
Setting Dirty, Packet address: 97300
Setting Dirty, Packet address: a7380
Setting Dirty, Packet address: 97400
Setting Dirty, Packet address: b7440
Setting Dirty, Packet address: 9f4c0
Setting Dirty, Packet address: b7580
Setting Dirty, Packet address: a75c0
Setting Dirty, Packet address: 9f640
Setting Dirty, Packet address: 976c0
Setting Dirty, Packet address: 8f700
Setting Dirty, Packet address: 97740
Setting Dirty, Packet address: a77c0
Setting Dirty, Packet address: af840
Setting Dirty, Packet address: 9f940
Setting Dirty, Packet address: af9c0
Setting Dirty, Packet address: 3fa00
Setting Dirty, Packet address: 37a40
Setting Dirty, Packet address: 3fb00
Setting Dirty, Packet address: 9fb40
Setting Dirty, Packet address: 37c40
Setting Dirty, Packet address: a7d40
Setting Dirty, Packet address: 9fe00
Setting Dirty, Packet address: 9fe40
Setting Dirty, Packet address: afec0
Setting Dirty, Packet address: a7f00
Setting Dirty, Packet address: aff80
Setting Dirty, Packet address: b7fc0
Setting Dirty, Packet address: 8ffc0
Setting Dirty, Packet address: 90000
Setting Dirty, Packet address: b8040
Setting Dirty, Packet address: a80c0
Setting Dirty, Packet address: b8140
Setting Dirty, Packet address: b81c0
Setting Dirty, Packet address: b8200
Setting Dirty, Packet address: a8280
Setting Dirty, Packet address: a02c0
Setting Dirty, Packet address: a0300
Setting Dirty, Packet address: b8340
Setting Dirty, Packet address: a8380
Setting Dirty, Packet address: a03c0
Setting Dirty, Packet address: b8500
Setting Dirty, Packet address: 90600
Setting Dirty, Packet address: a06c0
Setting Dirty, Packet address: b8740
Setting Dirty, Packet address: 90780
Setting Dirty, Packet address: b87c0
Setting Dirty, Packet address: 98880
Setting Dirty, Packet address: b88c0
Setting Dirty, Packet address: 38940
Setting Dirty, Packet address: 90a00
Setting Dirty, Packet address: b8a40
Setting Dirty, Packet address: 98ac0
Setting Dirty, Packet address: 98b00
Setting Dirty, Packet address: b8b80
Setting Dirty, Packet address: 38c00
Setting Dirty, Packet address: 98c40
Setting Dirty, Packet address: 38c80
Setting Dirty, Packet address: 98cc0
Setting Dirty, Packet address: b8d00
Setting Dirty, Packet address: b0d40
Setting Dirty, Packet address: 98d80
Setting Dirty, Packet address: a0dc0
Setting Dirty, Packet address: 90e00
Setting Dirty, Packet address: b8e80
Setting Dirty, Packet address: 38f40
Setting Dirty, Packet address: a0fc0
Setting Dirty, Packet address: 41040
Setting Dirty, Packet address: b1080
Setting Dirty, Packet address: 410c0
Setting Dirty, Packet address: 41100
Setting Dirty, Packet address: a1140
Setting Dirty, Packet address: b9180
Setting Dirty, Packet address: 991c0
Setting Dirty, Packet address: b1200
Setting Dirty, Packet address: 91240
Setting Dirty, Packet address: b92c0
Setting Dirty, Packet address: 99340
Setting Dirty, Packet address: 413c0
Setting Dirty, Packet address: b1440
Setting Dirty, Packet address: a1480
Setting Dirty, Packet address: 994c0
Setting Dirty, Packet address: a1580
Setting Dirty, Packet address: a15c0
Setting Dirty, Packet address: a9600
Setting Dirty, Packet address: b1640
Setting Dirty, Packet address: a1680
Setting Dirty, Packet address: a96c0
Setting Dirty, Packet address: a1700
Setting Dirty, Packet address: b1880
Setting Dirty, Packet address: 418c0
Setting Dirty, Packet address: 99900
Setting Dirty, Packet address: b9980
Setting Dirty, Packet address: 91a00
Setting Dirty, Packet address: b1a40
Setting Dirty, Packet address: b1a80
Setting Dirty, Packet address: a9b00
Setting Dirty, Packet address: a5b00
Setting Dirty, Packet address: 91b40
Setting Dirty, Packet address: b1c00
Setting Dirty, Packet address: 99c40
Setting Dirty, Packet address: a1c80
Setting Dirty, Packet address: 91d40
Setting Dirty, Packet address: a9d80
Setting Dirty, Packet address: a1e00
Setting Dirty, Packet address: a9e80
Setting Dirty, Packet address: 29ec0
Setting Dirty, Packet address: a1f00
Setting Dirty, Packet address: aa000
Setting Dirty, Packet address: 9a040
Setting Dirty, Packet address: a20c0
Setting Dirty, Packet address: a2100
Setting Dirty, Packet address: aa140
Setting Dirty, Packet address: ba180
Setting Dirty, Packet address: ba200
Setting Dirty, Packet address: a2240
Setting Dirty, Packet address: aa2c0
Setting Dirty, Packet address: aa340
Setting Dirty, Packet address: b2480
Setting Dirty, Packet address: 9a500
Setting Dirty, Packet address: aa540
Setting Dirty, Packet address: aa580
Setting Dirty, Packet address: aa600
Setting Dirty, Packet address: a2680
Setting Dirty, Packet address: a2700
Setting Dirty, Packet address: ba740
Setting Dirty, Packet address: 9a780
Setting Dirty, Packet address: a27c0
Setting Dirty, Packet address: 9a800
Setting Dirty, Packet address: ba880
Setting Dirty, Packet address: b28c0
Setting Dirty, Packet address: aa900
Setting Dirty, Packet address: aa940
Setting Dirty, Packet address: 929c0
Setting Dirty, Packet address: 9aa40
Setting Dirty, Packet address: bab00
Setting Dirty, Packet address: a2bc0
Setting Dirty, Packet address: 92c00
Setting Dirty, Packet address: 2ac40
Setting Dirty, Packet address: 92c80
Setting Dirty, Packet address: a2d00
Setting Dirty, Packet address: aad80
Setting Dirty, Packet address: badc0
Setting Dirty, Packet address: b2e00
Setting Dirty, Packet address: bae40
Setting Dirty, Packet address: aae80
Setting Dirty, Packet address: b2fc0
Setting Dirty, Packet address: ab040
Setting Dirty, Packet address: 930c0
Setting Dirty, Packet address: ab100
Setting Dirty, Packet address: a3140
Setting Dirty, Packet address: 931c0
Setting Dirty, Packet address: bb240
Setting Dirty, Packet address: bb280
Setting Dirty, Packet address: 932c0
Setting Dirty, Packet address: ab340
Setting Dirty, Packet address: b3380
Setting Dirty, Packet address: ab440
Setting Dirty, Packet address: b3480
Setting Dirty, Packet address: b3500
Setting Dirty, Packet address: 9b580
Setting Dirty, Packet address: b35c0
Setting Dirty, Packet address: bb600
Setting Dirty, Packet address: 8f600
Setting Dirty, Packet address: 2b680
Setting Dirty, Packet address: a3780
Setting Dirty, Packet address: 937c0
Setting Dirty, Packet address: 93800
Setting Dirty, Packet address: 93840
Setting Dirty, Packet address: bb980
Setting Dirty, Packet address: 2ba00
Setting Dirty, Packet address: 93a80
Setting Dirty, Packet address: a3ac0
Setting Dirty, Packet address: abb00
Setting Dirty, Packet address: 93bc0
Setting Dirty, Packet address: a3c00
Setting Dirty, Packet address: b3cc0
Setting Dirty, Packet address: afd00
Setting Dirty, Packet address: bbd40
Setting Dirty, Packet address: 9be40
Setting Dirty, Packet address: a3ec0
Setting Dirty, Packet address: 3ff00
Setting Dirty, Packet address: 93f40
Setting Dirty, Packet address: bbf80
Setting Dirty, Packet address: ac100
Setting Dirty, Packet address: b4140
Setting Dirty, Packet address: 9c180
Setting Dirty, Packet address: 94200
Setting Dirty, Packet address: bc240
Setting Dirty, Packet address: b4380
Setting Dirty, Packet address: a43c0
Setting Dirty, Packet address: a4440
Setting Dirty, Packet address: a0440
Setting Dirty, Packet address: b4480
Setting Dirty, Packet address: 944c0
Setting Dirty, Packet address: a45c0
Setting Dirty, Packet address: 3c680
Setting Dirty, Packet address: b46c0
Setting Dirty, Packet address: bc740
Setting Dirty, Packet address: 9c780
Setting Dirty, Packet address: 947c0
Setting Dirty, Packet address: ac840
Setting Dirty, Packet address: ac8c0
Setting Dirty, Packet address: 94900
Setting Dirty, Packet address: 2c940
Setting Dirty, Packet address: 2c980
Setting Dirty, Packet address: ac9c0
Setting Dirty, Packet address: 9ca00
Setting Dirty, Packet address: 94a40
Setting Dirty, Packet address: 9ca80
Setting Dirty, Packet address: acac0
Setting Dirty, Packet address: 2cb00
Setting Dirty, Packet address: b4bc0
Setting Dirty, Packet address: b0bc0
Setting Dirty, Packet address: acc40
Setting Dirty, Packet address: accc0
Setting Dirty, Packet address: bcd00
Setting Dirty, Packet address: 9cd80
Setting Dirty, Packet address: b4dc0
Setting Dirty, Packet address: bce00
Setting Dirty, Packet address: a4e80
Setting Dirty, Packet address: 95000
Setting Dirty, Packet address: 95080
Setting Dirty, Packet address: a50c0
Setting Dirty, Packet address: a5100
Setting Dirty, Packet address: b51c0
Setting Dirty, Packet address: 9d200
Setting Dirty, Packet address: bd2c0
Setting Dirty, Packet address: 95300
Setting Dirty, Packet address: 45380
Setting Dirty, Packet address: b5400
Setting Dirty, Packet address: b5480
Setting Dirty, Packet address: 454c0
Setting Dirty, Packet address: b5500
Setting Dirty, Packet address: ad540
Setting Dirty, Packet address: 95580
Setting Dirty, Packet address: 45600
Setting Dirty, Packet address: 9d640
Setting Dirty, Packet address: b5680
Setting Dirty, Packet address: 9d6c0
Setting Dirty, Packet address: b5700
Setting Dirty, Packet address: ad740
Setting Dirty, Packet address: b57c0
Setting Dirty, Packet address: 9d800
Setting Dirty, Packet address: bd8c0
Setting Dirty, Packet address: ad900
Setting Dirty, Packet address: b5940
Setting Dirty, Packet address: b5980
Setting Dirty, Packet address: b5a40
Setting Dirty, Packet address: ada80
Setting Dirty, Packet address: bdac0
Setting Dirty, Packet address: bdb80
Setting Dirty, Packet address: a5bc0
Setting Dirty, Packet address: adc40
Setting Dirty, Packet address: 9dc80
Setting Dirty, Packet address: 45cc0
Setting Dirty, Packet address: 45d40
Setting Dirty, Packet address: 95dc0
Setting Dirty, Packet address: b5e40
Setting Dirty, Packet address: adf00
Setting Dirty, Packet address: bdf80
Setting Dirty, Packet address: b5fc0
Setting Dirty, Packet address: a60c0
Setting Dirty, Packet address: a6100
Setting Dirty, Packet address: 9e140
Setting Dirty, Packet address: a6180
Setting Dirty, Packet address: a61c0
Setting Dirty, Packet address: be240
Setting Dirty, Packet address: be300
Setting Dirty, Packet address: 3e340
Setting Dirty, Packet address: 963c0
Setting Dirty, Packet address: a6400
Setting Dirty, Packet address: b6440
Setting Dirty, Packet address: b6480
Setting Dirty, Packet address: 3e4c0
Setting Dirty, Packet address: be500
Setting Dirty, Packet address: ae540
Setting Dirty, Packet address: 36580
Setting Dirty, Packet address: 3e5c0
Setting Dirty, Packet address: b6680
Setting Dirty, Packet address: 36700
Setting Dirty, Packet address: be740
Setting Dirty, Packet address: ae780
Setting Dirty, Packet address: 96840
Setting Dirty, Packet address: a6880
Setting Dirty, Packet address: 96900
Setting Dirty, Packet address: 9e940
Setting Dirty, Packet address: a69c0
Setting Dirty, Packet address: a6a80
Setting Dirty, Packet address: a6b40
Setting Dirty, Packet address: 9eb80
Setting Dirty, Packet address: bec00
Setting Dirty, Packet address: bec80
Setting Dirty, Packet address: aed40
Setting Dirty, Packet address: 3ed80
Setting Dirty, Packet address: 96e40
Setting Dirty, Packet address: 3ee80
Setting Dirty, Packet address: 9ef40
Setting Dirty, Packet address: 3ef80
Setting Dirty, Packet address: a7000
Setting Dirty, Packet address: bf080
Setting Dirty, Packet address: a70c0
Setting Dirty, Packet address: 8f100
Setting Dirty, Packet address: a7140
Setting Dirty, Packet address: 371c0
Setting Dirty, Packet address: 8f200
Setting Dirty, Packet address: b72c0
Setting Dirty, Packet address: bf380
Setting Dirty, Packet address: 9f3c0
Setting Dirty, Packet address: 9f400
Setting Dirty, Packet address: 67440
Setting Dirty, Packet address: af4c0
Setting Dirty, Packet address: 934c0
Setting Dirty, Packet address: 9f540
Setting Dirty, Packet address: bf580
Setting Dirty, Packet address: b7680
Setting Dirty, Packet address: 9f700
Setting Dirty, Packet address: 9f740
Setting Dirty, Packet address: bf800
Setting Dirty, Packet address: 37880
Setting Dirty, Packet address: 9f8c0
Setting Dirty, Packet address: 8f900
Setting Dirty, Packet address: bf940
Setting Dirty, Packet address: 3f980
Setting Dirty, Packet address: bf9c0
Setting Dirty, Packet address: bfa00
Setting Dirty, Packet address: afac0
Setting Dirty, Packet address: b7b00
Setting Dirty, Packet address: 37b40
Setting Dirty, Packet address: 97b80
Setting Dirty, Packet address: b7bc0
Setting Dirty, Packet address: b7c40
Setting Dirty, Packet address: afc80
Setting Dirty, Packet address: 37d40
Setting Dirty, Packet address: b7d80
Setting Dirty, Packet address: 9fdc0
Setting Dirty, Packet address: a7e80
Setting Dirty, Packet address: 9fec0
Setting Dirty, Packet address: 37f00
Setting Dirty, Packet address: a7f40
Setting Dirty, Packet address: bff80
Setting Dirty, Packet address: a7fc0
Setting Dirty, Packet address: a0080
Setting Dirty, Packet address: 900c0
Setting Dirty, Packet address: a0100
Setting Dirty, Packet address: a0140
Setting Dirty, Packet address: 98180
Setting Dirty, Packet address: c01c0
Setting Dirty, Packet address: c0240
Setting Dirty, Packet address: 90280
Setting Dirty, Packet address: 98340
Setting Dirty, Packet address: b0380
Setting Dirty, Packet address: b8400
Setting Dirty, Packet address: 98480
Setting Dirty, Packet address: b84c0
Setting Dirty, Packet address: a8500
Setting Dirty, Packet address: a0540
Setting Dirty, Packet address: 905c0
Setting Dirty, Packet address: b8600
Setting Dirty, Packet address: 906c0
Setting Dirty, Packet address: c0740
Setting Dirty, Packet address: 987c0
Setting Dirty, Packet address: b8800
Setting Dirty, Packet address: a8840
Setting Dirty, Packet address: b8880
Setting Dirty, Packet address: 94880
Setting Dirty, Packet address: a8a40
Setting Dirty, Packet address: b0a80
Setting Dirty, Packet address: b0ac0
Setting Dirty, Packet address: 38b00
Setting Dirty, Packet address: 98b80
Setting Dirty, Packet address: a0c00
Setting Dirty, Packet address: a0c40
Setting Dirty, Packet address: a8c80
Setting Dirty, Packet address: 38d00
Setting Dirty, Packet address: b0e00
Setting Dirty, Packet address: a0e40
Setting Dirty, Packet address: 90e80
Setting Dirty, Packet address: b8f00
Setting Dirty, Packet address: 90f40
Setting Dirty, Packet address: c0f80
Setting Dirty, Packet address: b1000
Setting Dirty, Packet address: 91040
Setting Dirty, Packet address: 91080
Setting Dirty, Packet address: b9100
Setting Dirty, Packet address: 41180
Setting Dirty, Packet address: 41200
Setting Dirty, Packet address: b1280
Setting Dirty, Packet address: a92c0
Setting Dirty, Packet address: a9300
Setting Dirty, Packet address: b1380
Setting Dirty, Packet address: b13c0
Setting Dirty, Packet address: 91480
Setting Dirty, Packet address: b14c0
Setting Dirty, Packet address: b9500
Setting Dirty, Packet address: a9540
Setting Dirty, Packet address: c15c0
Setting Dirty, Packet address: b9640
Setting Dirty, Packet address: b9680
Setting Dirty, Packet address: 99700
Setting Dirty, Packet address: a1740
Setting Dirty, Packet address: b1780
Setting Dirty, Packet address: a97c0
Setting Dirty, Packet address: b1800
Setting Dirty, Packet address: a1840
Setting Dirty, Packet address: c1880
Setting Dirty, Packet address: 41900
Setting Dirty, Packet address: b1980
Setting Dirty, Packet address: 919c0
Setting Dirty, Packet address: 9d9c0
Setting Dirty, Packet address: b9a00
Setting Dirty, Packet address: c1a40
Setting Dirty, Packet address: a1a80
Setting Dirty, Packet address: b5b00
Setting Dirty, Packet address: b9b40
Setting Dirty, Packet address: b1b80
Setting Dirty, Packet address: bdbc0
Setting Dirty, Packet address: 29c40
Setting Dirty, Packet address: 99cc0
Setting Dirty, Packet address: b1d00
Setting Dirty, Packet address: b1d40
Setting Dirty, Packet address: b1d80
Setting Dirty, Packet address: b1dc0
Setting Dirty, Packet address: 29e00
Setting Dirty, Packet address: 91e40
Setting Dirty, Packet address: a1e80
Setting Dirty, Packet address: 91ec0
Setting Dirty, Packet address: 29f00
Setting Dirty, Packet address: b1f40
Setting Dirty, Packet address: 91f80
Setting Dirty, Packet address: a9fc0
Setting Dirty, Packet address: b2100
Setting Dirty, Packet address: ba140
Setting Dirty, Packet address: a2180
Setting Dirty, Packet address: b2200
Setting Dirty, Packet address: 92280
Setting Dirty, Packet address: b22c0
Setting Dirty, Packet address: 9a300
Setting Dirty, Packet address: ba340
Setting Dirty, Packet address: b2380
Setting Dirty, Packet address: b23c0
Setting Dirty, Packet address: c2440
Setting Dirty, Packet address: 9a4c0
Setting Dirty, Packet address: ba580
Setting Dirty, Packet address: 9a5c0
Setting Dirty, Packet address: a2600
Setting Dirty, Packet address: c2640
Setting Dirty, Packet address: 9a680
Setting Dirty, Packet address: b26c0
Setting Dirty, Packet address: aa700
Setting Dirty, Packet address: 92740
Setting Dirty, Packet address: aa7c0
Setting Dirty, Packet address: aa800
Setting Dirty, Packet address: aa840
Setting Dirty, Packet address: aa880
Setting Dirty, Packet address: aa8c0
Setting Dirty, Packet address: ba900
Setting Dirty, Packet address: 92940
Setting Dirty, Packet address: b29c0
Setting Dirty, Packet address: a2a00
Setting Dirty, Packet address: b2b00
Setting Dirty, Packet address: a2b80
Setting Dirty, Packet address: c2bc0
Setting Dirty, Packet address: c2c80
Setting Dirty, Packet address: aad00
Setting Dirty, Packet address: 9ad40
Setting Dirty, Packet address: bad80
Setting Dirty, Packet address: a2dc0
Setting Dirty, Packet address: bae00
Setting Dirty, Packet address: aae40
Setting Dirty, Packet address: b2e80
Setting Dirty, Packet address: aaec0
Setting Dirty, Packet address: a2f00
Setting Dirty, Packet address: 2af40
Setting Dirty, Packet address: 2afc0
Setting Dirty, Packet address: 9b000
Setting Dirty, Packet address: 93040
Setting Dirty, Packet address: 2b040
Setting Dirty, Packet address: ab1c0
Setting Dirty, Packet address: 9b200
Setting Dirty, Packet address: b3280
Setting Dirty, Packet address: 9b300
Setting Dirty, Packet address: c3340
Setting Dirty, Packet address: ab380
Setting Dirty, Packet address: a33c0
Setting Dirty, Packet address: 93480
Setting Dirty, Packet address: a34c0
Setting Dirty, Packet address: c3500
Setting Dirty, Packet address: af500
Setting Dirty, Packet address: ab540
Setting Dirty, Packet address: bb5c0
Setting Dirty, Packet address: 93600
Setting Dirty, Packet address: ab700
Setting Dirty, Packet address: ab740
Setting Dirty, Packet address: b37c0
Setting Dirty, Packet address: c3800
Setting Dirty, Packet address: ab840
Setting Dirty, Packet address: bb880
Setting Dirty, Packet address: 938c0
Setting Dirty, Packet address: a3980
Setting Dirty, Packet address: 2b9c0
Setting Dirty, Packet address: aba00
Setting Dirty, Packet address: 2ba40
Setting Dirty, Packet address: bba80
Setting Dirty, Packet address: 2bb40
Setting Dirty, Packet address: b3b80
Setting Dirty, Packet address: abc00
Setting Dirty, Packet address: b3c40
Setting Dirty, Packet address: bbcc0
Setting Dirty, Packet address: bbd00
Setting Dirty, Packet address: c3d80
Setting Dirty, Packet address: b3e00
Setting Dirty, Packet address: b3e80
Setting Dirty, Packet address: abf00
Setting Dirty, Packet address: bbf40
Setting Dirty, Packet address: b3fc0
Setting Dirty, Packet address: b4000
Setting Dirty, Packet address: bc040
Setting Dirty, Packet address: bc080
Setting Dirty, Packet address: 940c0
Setting Dirty, Packet address: bc180
Setting Dirty, Packet address: a4200
Setting Dirty, Packet address: 98200
Setting Dirty, Packet address: ac240
Setting Dirty, Packet address: ac2c0
Setting Dirty, Packet address: ac300
Setting Dirty, Packet address: 9c3c0
Setting Dirty, Packet address: bc400
Setting Dirty, Packet address: bc440
Setting Dirty, Packet address: ac4c0
Setting Dirty, Packet address: b4540
Setting Dirty, Packet address: ac580
Setting Dirty, Packet address: 2c5c0
Setting Dirty, Packet address: c4600
Setting Dirty, Packet address: 9c640
Setting Dirty, Packet address: c4680
Setting Dirty, Packet address: bc6c0
Setting Dirty, Packet address: c4740
Setting Dirty, Packet address: ac7c0
Setting Dirty, Packet address: b4840
Setting Dirty, Packet address: a4880
Setting Dirty, Packet address: bc8c0
Setting Dirty, Packet address: a08c0
Setting Dirty, Packet address: 3c900
Setting Dirty, Packet address: b4980
Setting Dirty, Packet address: a09c0
Setting Dirty, Packet address: a4a40
Setting Dirty, Packet address: aca80
Setting Dirty, Packet address: acb00
Setting Dirty, Packet address: b4b80
Setting Dirty, Packet address: a4bc0
Setting Dirty, Packet address: 3cc40
Setting Dirty, Packet address: bcc80
Setting Dirty, Packet address: 9cd00
Setting Dirty, Packet address: c4d40
Setting Dirty, Packet address: acd80
Setting Dirty, Packet address: bcdc0
Setting Dirty, Packet address: ace40
Setting Dirty, Packet address: 3ce80
Setting Dirty, Packet address: c4fc0
Setting Dirty, Packet address: bd000
Setting Dirty, Packet address: 9d080
Setting Dirty, Packet address: bd100
Setting Dirty, Packet address: 95140
Setting Dirty, Packet address: 45240
Setting Dirty, Packet address: a5280
Setting Dirty, Packet address: ad2c0
Setting Dirty, Packet address: ad340
Setting Dirty, Packet address: 9d380
Setting Dirty, Packet address: bd400
Setting Dirty, Packet address: 91400
Setting Dirty, Packet address: b5440
Setting Dirty, Packet address: c5480
Setting Dirty, Packet address: bd4c0
Setting Dirty, Packet address: bd500
Setting Dirty, Packet address: ad580
Setting Dirty, Packet address: ad5c0
Setting Dirty, Packet address: bd640
Setting Dirty, Packet address: ad680
Setting Dirty, Packet address: 95700
Setting Dirty, Packet address: 9d740
Setting Dirty, Packet address: ad780
Setting Dirty, Packet address: 957c0
Setting Dirty, Packet address: a5800
Setting Dirty, Packet address: 45880
Setting Dirty, Packet address: b58c0
Setting Dirty, Packet address: a5940
Setting Dirty, Packet address: ad980
Setting Dirty, Packet address: 459c0
Setting Dirty, Packet address: ada00
Setting Dirty, Packet address: b5ac0
Setting Dirty, Packet address: bdb00
Setting Dirty, Packet address: c5b40
Setting Dirty, Packet address: a5b80
Setting Dirty, Packet address: adbc0
Setting Dirty, Packet address: 99c00
Setting Dirty, Packet address: 45c40
Setting Dirty, Packet address: adcc0
Setting Dirty, Packet address: 9dd40
Setting Dirty, Packet address: a5d80
Setting Dirty, Packet address: bddc0
Setting Dirty, Packet address: a5e00
Setting Dirty, Packet address: 9de40
Setting Dirty, Packet address: bde80
Setting Dirty, Packet address: a5ec0
Setting Dirty, Packet address: bdf00
Setting Dirty, Packet address: 9df40
Setting Dirty, Packet address: b5f80
Setting Dirty, Packet address: be000
Setting Dirty, Packet address: 96080
Setting Dirty, Packet address: b6100
Setting Dirty, Packet address: a6140
Setting Dirty, Packet address: ae1c0
Setting Dirty, Packet address: be200
Setting Dirty, Packet address: 9e240
Setting Dirty, Packet address: a6280
Setting Dirty, Packet address: 3e300
Setting Dirty, Packet address: ae400
Setting Dirty, Packet address: 3e440
Setting Dirty, Packet address: 3e480
Setting Dirty, Packet address: a64c0
Setting Dirty, Packet address: 3e500
Setting Dirty, Packet address: 3e540
Setting Dirty, Packet address: 96580
Setting Dirty, Packet address: 9e5c0
Setting Dirty, Packet address: be600
Setting Dirty, Packet address: 96640
Setting Dirty, Packet address: 966c0
Setting Dirty, Packet address: ae700
Setting Dirty, Packet address: 96780
Setting Dirty, Packet address: ae800
Setting Dirty, Packet address: be840
Setting Dirty, Packet address: 36880
Setting Dirty, Packet address: 3e8c0
Setting Dirty, Packet address: be940
Setting Dirty, Packet address: ae9c0
Setting Dirty, Packet address: bea00
Setting Dirty, Packet address: b6a40
Setting Dirty, Packet address: b6ac0
Setting Dirty, Packet address: beb40
Setting Dirty, Packet address: c6bc0
Setting Dirty, Packet address: 3ec00
Setting Dirty, Packet address: 3ec40
Setting Dirty, Packet address: 9ac80
Setting Dirty, Packet address: bed00
Setting Dirty, Packet address: b6d80
Setting Dirty, Packet address: b6dc0
Setting Dirty, Packet address: aee80
Setting Dirty, Packet address: 3eec0
Setting Dirty, Packet address: 9ef00
Setting Dirty, Packet address: b6f40
Setting Dirty, Packet address: 96f80
Setting Dirty, Packet address: b3080
Setting Dirty, Packet address: 9f0c0
Setting Dirty, Packet address: 37100
Setting Dirty, Packet address: bf140
Setting Dirty, Packet address: ab140
Setting Dirty, Packet address: af180
Setting Dirty, Packet address: a7200
Setting Dirty, Packet address: af240
Setting Dirty, Packet address: 97280
Setting Dirty, Packet address: bf2c0
Setting Dirty, Packet address: 9f440
Setting Dirty, Packet address: 8f480
Setting Dirty, Packet address: 9f500
Setting Dirty, Packet address: bf540
Setting Dirty, Packet address: a7580
Setting Dirty, Packet address: c75c0
Setting Dirty, Packet address: 37640
Setting Dirty, Packet address: a7680
Setting Dirty, Packet address: 93680
Setting Dirty, Packet address: 9f6c0
Setting Dirty, Packet address: bf740
Setting Dirty, Packet address: 9f780
Setting Dirty, Packet address: 377c0
Setting Dirty, Packet address: b7800
Setting Dirty, Packet address: 9f880
Setting Dirty, Packet address: af900
Setting Dirty, Packet address: 37940
Setting Dirty, Packet address: af980
Setting Dirty, Packet address: 9f9c0
Setting Dirty, Packet address: b7a40
Setting Dirty, Packet address: 9fb00
Setting Dirty, Packet address: c7bc0
Setting Dirty, Packet address: bbbc0
Setting Dirty, Packet address: a7c00
Setting Dirty, Packet address: bfc40
Setting Dirty, Packet address: 9fc80
Setting Dirty, Packet address: 9fcc0
Setting Dirty, Packet address: b7d00
Setting Dirty, Packet address: 97d80
Setting Dirty, Packet address: 3fdc0
Setting Dirty, Packet address: b7e40
Setting Dirty, Packet address: b3e40
Setting Dirty, Packet address: afe80
Setting Dirty, Packet address: bff00
Setting Dirty, Packet address: 3ff80
Setting Dirty, Packet address: 38080
Setting Dirty, Packet address: c8180
Setting Dirty, Packet address: 90200
Setting Dirty, Packet address: c8240
Setting Dirty, Packet address: a8300
Setting Dirty, Packet address: 90340
Setting Dirty, Packet address: a0380
Setting Dirty, Packet address: a83c0
Setting Dirty, Packet address: c8400
Setting Dirty, Packet address: a8480
Setting Dirty, Packet address: a84c0
Setting Dirty, Packet address: b0500
Setting Dirty, Packet address: c4500
Setting Dirty, Packet address: 90580
Setting Dirty, Packet address: c05c0
Setting Dirty, Packet address: c0600
Setting Dirty, Packet address: b8640
Setting Dirty, Packet address: a8680
Setting Dirty, Packet address: 90740
Setting Dirty, Packet address: 38800
Setting Dirty, Packet address: c0840
Setting Dirty, Packet address: 90880
Setting Dirty, Packet address: c08c0
Setting Dirty, Packet address: b8900
Setting Dirty, Packet address: b8940
Setting Dirty, Packet address: a0980
Setting Dirty, Packet address: 909c0
Setting Dirty, Packet address: 98a40
Setting Dirty, Packet address: a8a80
Setting Dirty, Packet address: c0b00
Setting Dirty, Packet address: c0b40
Setting Dirty, Packet address: c0b80
Setting Dirty, Packet address: 98bc0
Setting Dirty, Packet address: a8c00
Setting Dirty, Packet address: b8c40
Setting Dirty, Packet address: b0c80
Setting Dirty, Packet address: 98d00
Setting Dirty, Packet address: 98d40
Setting Dirty, Packet address: a8d80
Setting Dirty, Packet address: b0dc0
Setting Dirty, Packet address: 38e00
Setting Dirty, Packet address: b8e40
Setting Dirty, Packet address: 98e80
Setting Dirty, Packet address: 38ec0
Setting Dirty, Packet address: a8f00
Setting Dirty, Packet address: b4f00
Setting Dirty, Packet address: c8f40
Setting Dirty, Packet address: a0f80
Setting Dirty, Packet address: b0fc0
Setting Dirty, Packet address: c1000
Setting Dirty, Packet address: b9040
Setting Dirty, Packet address: b9080
Setting Dirty, Packet address: 99180
Setting Dirty, Packet address: b11c0
Setting Dirty, Packet address: 91200
Setting Dirty, Packet address: a1240
Setting Dirty, Packet address: b9280
Setting Dirty, Packet address: a1300
Setting Dirty, Packet address: b9340
Setting Dirty, Packet address: c9380
Setting Dirty, Packet address: a9440
Setting Dirty, Packet address: c1480
Setting Dirty, Packet address: a14c0
Setting Dirty, Packet address: b1500
Setting Dirty, Packet address: 91540
Setting Dirty, Packet address: b9580
Setting Dirty, Packet address: a95c0
Setting Dirty, Packet address: a16c0
Setting Dirty, Packet address: b1740
Setting Dirty, Packet address: c17c0
Setting Dirty, Packet address: c1800
Setting Dirty, Packet address: a9840
Setting Dirty, Packet address: 95880
Setting Dirty, Packet address: b18c0
Setting Dirty, Packet address: b9900
Setting Dirty, Packet address: c1940
Setting Dirty, Packet address: b9940
Setting Dirty, Packet address: c9980
Setting Dirty, Packet address: b99c0
Setting Dirty, Packet address: 99a40
Setting Dirty, Packet address: 99ac0
Setting Dirty, Packet address: b9b00
Setting Dirty, Packet address: a1b40
Setting Dirty, Packet address: c1b80
Setting Dirty, Packet address: 99bc0
Setting Dirty, Packet address: a9c00
Setting Dirty, Packet address: 91c40
Setting Dirty, Packet address: b1c80
Setting Dirty, Packet address: b1cc0
Setting Dirty, Packet address: 99d00
Setting Dirty, Packet address: c1d40
Setting Dirty, Packet address: 99dc0
Setting Dirty, Packet address: b9e00
Setting Dirty, Packet address: a9e40
Setting Dirty, Packet address: b1e80
Setting Dirty, Packet address: 99f00
Setting Dirty, Packet address: b9f40
Setting Dirty, Packet address: 1fc0
Setting Dirty, Packet address: a2000
Setting Dirty, Packet address: 2a040
Setting Dirty, Packet address: c20c0
Setting Dirty, Packet address: aa100
Setting Dirty, Packet address: c21c0
Setting Dirty, Packet address: c2240
Setting Dirty, Packet address: a62c0
Setting Dirty, Packet address: ba300
Setting Dirty, Packet address: c2340
Setting Dirty, Packet address: aa3c0
Setting Dirty, Packet address: b2400
Setting Dirty, Packet address: ca400
Setting Dirty, Packet address: 9a440
Setting Dirty, Packet address: a2480
Setting Dirty, Packet address: ca4c0
Setting Dirty, Packet address: c2500
Setting Dirty, Packet address: ca540
Setting Dirty, Packet address: a2580
Setting Dirty, Packet address: c25c0
Setting Dirty, Packet address: c2600
Setting Dirty, Packet address: b2640
Setting Dirty, Packet address: ba680
Setting Dirty, Packet address: ba6c0
Setting Dirty, Packet address: aa780
Setting Dirty, Packet address: ba7c0
Setting Dirty, Packet address: c2800
Setting Dirty, Packet address: 9a840
Setting Dirty, Packet address: ca8c0
Setting Dirty, Packet address: a2900
Setting Dirty, Packet address: c2940
Setting Dirty, Packet address: c2a40
Setting Dirty, Packet address: aaa80
Setting Dirty, Packet address: 92ac0
Setting Dirty, Packet address: bab40
Setting Dirty, Packet address: a2c00
Setting Dirty, Packet address: b2c40
Setting Dirty, Packet address: aac80
Setting Dirty, Packet address: c2cc0
Setting Dirty, Packet address: bad00
Setting Dirty, Packet address: a2d40
Setting Dirty, Packet address: c6d40
Setting Dirty, Packet address: cadc0
Setting Dirty, Packet address: c2e00
Setting Dirty, Packet address: aee00
Setting Dirty, Packet address: bae80
Setting Dirty, Packet address: b2ec0
Setting Dirty, Packet address: caf00
Setting Dirty, Packet address: c2f40
Setting Dirty, Packet address: c2f80
Setting Dirty, Packet address: a2fc0
Setting Dirty, Packet address: cb000
Setting Dirty, Packet address: 8f040
Setting Dirty, Packet address: 2b100
Setting Dirty, Packet address: c3140
Setting Dirty, Packet address: a3180
Setting Dirty, Packet address: bb1c0
Setting Dirty, Packet address: 93200
Setting Dirty, Packet address: 2b280
Setting Dirty, Packet address: cb300
Setting Dirty, Packet address: a3380
Setting Dirty, Packet address: a3400
Setting Dirty, Packet address: b3440
Setting Dirty, Packet address: 9b480
Setting Dirty, Packet address: a3580
Setting Dirty, Packet address: c35c0
Setting Dirty, Packet address: c7600
Setting Dirty, Packet address: 93640
Setting Dirty, Packet address: 936c0
Setting Dirty, Packet address: 2b700
Setting Dirty, Packet address: cb740
Setting Dirty, Packet address: cb780
Setting Dirty, Packet address: 9b7c0
Setting Dirty, Packet address: bb800
Setting Dirty, Packet address: cb840
Setting Dirty, Packet address: a3880
Setting Dirty, Packet address: b38c0
Setting Dirty, Packet address: ab940
Setting Dirty, Packet address: 9b9c0
Setting Dirty, Packet address: c3a00
Setting Dirty, Packet address: aba40
Setting Dirty, Packet address: b3a80
Setting Dirty, Packet address: c3ac0
Setting Dirty, Packet address: abb40
Setting Dirty, Packet address: c3b80
Setting Dirty, Packet address: b3bc0
Setting Dirty, Packet address: b3c00
Setting Dirty, Packet address: 37c00
Setting Dirty, Packet address: 93c40
Setting Dirty, Packet address: b3c80
Setting Dirty, Packet address: 2bcc0
Setting Dirty, Packet address: c3d40
Setting Dirty, Packet address: 9bd80
Setting Dirty, Packet address: cbdc0
Setting Dirty, Packet address: bbe00
Setting Dirty, Packet address: abe80
Setting Dirty, Packet address: cbec0
Setting Dirty, Packet address: a3f80
Setting Dirty, Packet address: c3fc0
Setting Dirty, Packet address: 2c000
Setting Dirty, Packet address: a40c0
Setting Dirty, Packet address: c4140
Setting Dirty, Packet address: b41c0
Setting Dirty, Packet address: b4200
Setting Dirty, Packet address: 9c240
Setting Dirty, Packet address: a4280
Setting Dirty, Packet address: c42c0
Setting Dirty, Packet address: a4300
Setting Dirty, Packet address: 94340
Setting Dirty, Packet address: 2c380
Setting Dirty, Packet address: c4480
Setting Dirty, Packet address: cc540
Setting Dirty, Packet address: bc580
Setting Dirty, Packet address: ac5c0
Setting Dirty, Packet address: bc640
Setting Dirty, Packet address: 9c6c0
Setting Dirty, Packet address: bc700
Setting Dirty, Packet address: bc780
Setting Dirty, Packet address: 94800
Setting Dirty, Packet address: 9c840
Setting Dirty, Packet address: 948c0
Setting Dirty, Packet address: b4900
Setting Dirty, Packet address: bc980
Setting Dirty, Packet address: b0980
Setting Dirty, Packet address: 2ca00
Setting Dirty, Packet address: cca80
Setting Dirty, Packet address: 94b40
Setting Dirty, Packet address: 9cb80
Setting Dirty, Packet address: b4c40
Setting Dirty, Packet address: c4c80
Setting Dirty, Packet address: b4d00
Setting Dirty, Packet address: b4d80
Setting Dirty, Packet address: bce40
Setting Dirty, Packet address: b4ec0
Setting Dirty, Packet address: c4f00
Setting Dirty, Packet address: 94f40
Setting Dirty, Packet address: bcf80
Setting Dirty, Packet address: ccfc0
Setting Dirty, Packet address: cd000
Setting Dirty, Packet address: 9d040
Setting Dirty, Packet address: ad0c0
Setting Dirty, Packet address: b5100
Setting Dirty, Packet address: bd140
Setting Dirty, Packet address: a5180
Setting Dirty, Packet address: ad1c0
Setting Dirty, Packet address: b5240
Setting Dirty, Packet address: cd280
Setting Dirty, Packet address: a52c0
Setting Dirty, Packet address: bd300
Setting Dirty, Packet address: a5380
Setting Dirty, Packet address: b53c0
Setting Dirty, Packet address: a5440
Setting Dirty, Packet address: 95480
Setting Dirty, Packet address: 954c0
Setting Dirty, Packet address: 45500
Setting Dirty, Packet address: b55c0
Setting Dirty, Packet address: cd600
Setting Dirty, Packet address: ad640
Setting Dirty, Packet address: a5680
Setting Dirty, Packet address: 956c0
Setting Dirty, Packet address: bd700
Setting Dirty, Packet address: bd740
Setting Dirty, Packet address: bd780
Setting Dirty, Packet address: a57c0
Setting Dirty, Packet address: ad840
Setting Dirty, Packet address: c58c0
Setting Dirty, Packet address: 9d900
Setting Dirty, Packet address: 95980
Setting Dirty, Packet address: a59c0
Setting Dirty, Packet address: 9da00
Setting Dirty, Packet address: bda80
Setting Dirty, Packet address: c5ac0
Setting Dirty, Packet address: 95b40
Setting Dirty, Packet address: b5b80
Setting Dirty, Packet address: cdc00
Setting Dirty, Packet address: 95c40
Setting Dirty, Packet address: 95c80
Setting Dirty, Packet address: add00
Setting Dirty, Packet address: b5d40
Setting Dirty, Packet address: b5d80
Setting Dirty, Packet address: b5dc0
Setting Dirty, Packet address: c5e00
Setting Dirty, Packet address: cde40
Setting Dirty, Packet address: ade80
Setting Dirty, Packet address: a9ec0
Setting Dirty, Packet address: bdf40
Setting Dirty, Packet address: 9df80
Setting Dirty, Packet address: c6000
Setting Dirty, Packet address: c6080
Setting Dirty, Packet address: b2080
Setting Dirty, Packet address: c60c0
Setting Dirty, Packet address: 9e100
Setting Dirty, Packet address: be140
Setting Dirty, Packet address: ae180
Setting Dirty, Packet address: c61c0
Setting Dirty, Packet address: ce240
Setting Dirty, Packet address: ae300
Setting Dirty, Packet address: ae340
Setting Dirty, Packet address: b6380
Setting Dirty, Packet address: a63c0
Setting Dirty, Packet address: 3e400
Setting Dirty, Packet address: a6440
Setting Dirty, Packet address: be480
Setting Dirty, Packet address: be4c0
Setting Dirty, Packet address: c6500
Setting Dirty, Packet address: 96540
Setting Dirty, Packet address: a6580
Setting Dirty, Packet address: a65c0
Setting Dirty, Packet address: b6640
Setting Dirty, Packet address: 96680
Setting Dirty, Packet address: ce6c0
Setting Dirty, Packet address: a6700
Setting Dirty, Packet address: b6740
Setting Dirty, Packet address: b6780
Setting Dirty, Packet address: 36800
Setting Dirty, Packet address: 9e840
Setting Dirty, Packet address: 9e8c0
Setting Dirty, Packet address: b6900
Setting Dirty, Packet address: 9e980
Setting Dirty, Packet address: ce9c0
Setting Dirty, Packet address: 96a80
Setting Dirty, Packet address: beac0
Setting Dirty, Packet address: aeb80
Setting Dirty, Packet address: aebc0
Setting Dirty, Packet address: bec40
Setting Dirty, Packet address: a6c80
Setting Dirty, Packet address: 9ed00
Setting Dirty, Packet address: a6d40
Setting Dirty, Packet address: c6dc0
Setting Dirty, Packet address: c6e00
Setting Dirty, Packet address: 9ee40
Setting Dirty, Packet address: cee80
Setting Dirty, Packet address: beec0
Setting Dirty, Packet address: cef00
Setting Dirty, Packet address: c6f40
Setting Dirty, Packet address: c6f80
Setting Dirty, Packet address: befc0
Setting Dirty, Packet address: 87000
Setting Dirty, Packet address: 37040
Setting Dirty, Packet address: c70c0
Setting Dirty, Packet address: 97100
Setting Dirty, Packet address: bf180
Setting Dirty, Packet address: c71c0
Setting Dirty, Packet address: af280
Setting Dirty, Packet address: af2c0
Setting Dirty, Packet address: af300
Setting Dirty, Packet address: cf340
Setting Dirty, Packet address: b73c0
Setting Dirty, Packet address: 37400
Setting Dirty, Packet address: af400
Setting Dirty, Packet address: c74c0
Setting Dirty, Packet address: 9f580
Setting Dirty, Packet address: a7640
Setting Dirty, Packet address: af6c0
Setting Dirty, Packet address: b7700
Setting Dirty, Packet address: af740
Setting Dirty, Packet address: af780
Setting Dirty, Packet address: c77c0
Setting Dirty, Packet address: 37840
Setting Dirty, Packet address: a7840
Setting Dirty, Packet address: bf880
Setting Dirty, Packet address: c78c0
Setting Dirty, Packet address: 9f900
Setting Dirty, Packet address: bf980
Setting Dirty, Packet address: b7a00
Setting Dirty, Packet address: bfa40
Setting Dirty, Packet address: 8fa80
Setting Dirty, Packet address: 37ac0
Setting Dirty, Packet address: 97b00
Setting Dirty, Packet address: 8fb80
Setting Dirty, Packet address: cfb80
Setting Dirty, Packet address: 3fc00
Setting Dirty, Packet address: c7c40
Setting Dirty, Packet address: b7c80
Setting Dirty, Packet address: afd40
Setting Dirty, Packet address: c7d80
Setting Dirty, Packet address: afdc0
Setting Dirty, Packet address: a7e40
Setting Dirty, Packet address: cff40
Setting Dirty, Packet address: bff40
Setting Dirty, Packet address: affc0
Setting Dirty, Packet address: b0000
Setting Dirty, Packet address: c0040
Setting Dirty, Packet address: a4040
Setting Dirty, Packet address: c8080
Setting Dirty, Packet address: c00c0
Setting Dirty, Packet address: 98100
Setting Dirty, Packet address: a0180
Setting Dirty, Packet address: a81c0
Setting Dirty, Packet address: 98240
Setting Dirty, Packet address: a0280
Setting Dirty, Packet address: 982c0
Setting Dirty, Packet address: c0300
Setting Dirty, Packet address: a8340
Setting Dirty, Packet address: d0380
Setting Dirty, Packet address: 383c0
Setting Dirty, Packet address: cc400
Setting Dirty, Packet address: 90440
Setting Dirty, Packet address: c0480
Setting Dirty, Packet address: 984c0
Setting Dirty, Packet address: c8500
Setting Dirty, Packet address: b0580
Setting Dirty, Packet address: 985c0
Setting Dirty, Packet address: a8600
Setting Dirty, Packet address: a8640
Setting Dirty, Packet address: d0680
Setting Dirty, Packet address: a86c0
Setting Dirty, Packet address: b0740
Setting Dirty, Packet address: 9c740
Setting Dirty, Packet address: 98780
Setting Dirty, Packet address: c8800
Setting Dirty, Packet address: ac800
Setting Dirty, Packet address: 98840
Setting Dirty, Packet address: a8880
Setting Dirty, Packet address: a8900
Setting Dirty, Packet address: a8980
Setting Dirty, Packet address: d09c0
Setting Dirty, Packet address: c8a00
Setting Dirty, Packet address: c8a40
Setting Dirty, Packet address: 90a80
Setting Dirty, Packet address: b8b40
Setting Dirty, Packet address: a8c40
Setting Dirty, Packet address: a0d00
Setting Dirty, Packet address: c8d40
Setting Dirty, Packet address: c0d80
Setting Dirty, Packet address: c8dc0
Setting Dirty, Packet address: a8e00
Setting Dirty, Packet address: a4e00
Setting Dirty, Packet address: b0ec0
Setting Dirty, Packet address: c0f00
Setting Dirty, Packet address: a8f40
Setting Dirty, Packet address: d0f80
Setting Dirty, Packet address: 38fc0
Setting Dirty, Packet address: 99000
Setting Dirty, Packet address: d1040
Setting Dirty, Packet address: a1080
Setting Dirty, Packet address: d10c0
Setting Dirty, Packet address: a9100
Setting Dirty, Packet address: c1140
Setting Dirty, Packet address: c9180
Setting Dirty, Packet address: c11c0
Setting Dirty, Packet address: b9200
Setting Dirty, Packet address: b9240
Setting Dirty, Packet address: a1280
Setting Dirty, Packet address: d1340
Setting Dirty, Packet address: d1380
Setting Dirty, Packet address: c13c0
Setting Dirty, Packet address: c9400
Setting Dirty, Packet address: a94c0
Setting Dirty, Packet address: c1500
Setting Dirty, Packet address: b9540
Setting Dirty, Packet address: b1580
Setting Dirty, Packet address: 915c0
Setting Dirty, Packet address: d1600
Setting Dirty, Packet address: c1640
Setting Dirty, Packet address: c1680
Setting Dirty, Packet address: d16c0
Setting Dirty, Packet address: a17c0
Setting Dirty, Packet address: b9840
Setting Dirty, Packet address: b9880
Setting Dirty, Packet address: 918c0
Setting Dirty, Packet address: a19c0
Setting Dirty, Packet address: c1a00
Setting Dirty, Packet address: c9ac0
Setting Dirty, Packet address: c9b40
Setting Dirty, Packet address: c1bc0
Setting Dirty, Packet address: c9c40
Setting Dirty, Packet address: c1cc0
Setting Dirty, Packet address: a1d00
Setting Dirty, Packet address: a9d40
Setting Dirty, Packet address: c9d80
Setting Dirty, Packet address: c1dc0
Setting Dirty, Packet address: 91e00
Setting Dirty, Packet address: c9e40
Setting Dirty, Packet address: b9ec0
Setting Dirty, Packet address: d1f00
Setting Dirty, Packet address: d1f40
Setting Dirty, Packet address: b9fc0
Setting Dirty, Packet address: ca000
Setting Dirty, Packet address: aa040
Setting Dirty, Packet address: ae040
Setting Dirty, Packet address: aa080
Setting Dirty, Packet address: d2100
Setting Dirty, Packet address: 9a140
Setting Dirty, Packet address: c2180
Setting Dirty, Packet address: ba1c0
Setting Dirty, Packet address: aa200
Setting Dirty, Packet address: 9a240
Setting Dirty, Packet address: ca280
Setting Dirty, Packet address: ca2c0
Setting Dirty, Packet address: aa400
Setting Dirty, Packet address: aa4c0
Setting Dirty, Packet address: b2500
Setting Dirty, Packet address: ca5c0
Setting Dirty, Packet address: ca600
Setting Dirty, Packet address: ba640
Setting Dirty, Packet address: d26c0
Setting Dirty, Packet address: b2700
Setting Dirty, Packet address: c2740
Setting Dirty, Packet address: ba800
Setting Dirty, Packet address: ba840
Setting Dirty, Packet address: a2880
Setting Dirty, Packet address: 92900
Setting Dirty, Packet address: d2940
Setting Dirty, Packet address: b2980
Setting Dirty, Packet address: ba9c0
Setting Dirty, Packet address: caa00
Setting Dirty, Packet address: c6a40
Setting Dirty, Packet address: caa80
Setting Dirty, Packet address: b2ac0
Setting Dirty, Packet address: c2b00
Setting Dirty, Packet address: 2ab40
Setting Dirty, Packet address: d2b80
Setting Dirty, Packet address: cabc0
Setting Dirty, Packet address: d2c80
Setting Dirty, Packet address: c6cc0
Setting Dirty, Packet address: a2d80
Setting Dirty, Packet address: cae40
Setting Dirty, Packet address: aaf00
Setting Dirty, Packet address: 9af80
Setting Dirty, Packet address: b3000
Setting Dirty, Packet address: d3040
Setting Dirty, Packet address: c3080
Setting Dirty, Packet address: bb080
Setting Dirty, Packet address: 2b0c0
Setting Dirty, Packet address: 9b100
Setting Dirty, Packet address: bb180
Setting Dirty, Packet address: a31c0
Setting Dirty, Packet address: a3200
Setting Dirty, Packet address: b3240
Setting Dirty, Packet address: cb2c0
Setting Dirty, Packet address: ab300
Setting Dirty, Packet address: cb340
Setting Dirty, Packet address: c3380
Setting Dirty, Packet address: ab400
Setting Dirty, Packet address: cb480
Setting Dirty, Packet address: bb500
Setting Dirty, Packet address: c3540
Setting Dirty, Packet address: 9b5c0
Setting Dirty, Packet address: ab600
Setting Dirty, Packet address: a7600
Setting Dirty, Packet address: ab640
Setting Dirty, Packet address: cb6c0
Setting Dirty, Packet address: ab780
Setting Dirty, Packet address: a37c0
Setting Dirty, Packet address: cb8c0
Setting Dirty, Packet address: b3940
Setting Dirty, Packet address: 9ba00
Setting Dirty, Packet address: a3a40
Setting Dirty, Packet address: abac0
Setting Dirty, Packet address: b3b40
Setting Dirty, Packet address: cbbc0
Setting Dirty, Packet address: 2bc00
Setting Dirty, Packet address: bbc40
Setting Dirty, Packet address: 2bc80
[...]
Setting Dirty, Packet address: 221fc0
Setting Dirty, Packet address: 1ea000
Setting Dirty, Packet address: 15a040
Setting Dirty, Packet address: 1fa080
Setting Dirty, Packet address: 20a0c0
Setting Dirty, Packet address: 21e100
Setting Dirty, Packet address: 1d2140
Setting Dirty, Packet address: 21a140
Setting Dirty, Packet address: 1da180
Setting Dirty, Packet address: 22a1c0
Setting Dirty, Packet address: 1e2200
Setting Dirty, Packet address: 1e2240
Setting Dirty, Packet address: 1ca280
Setting Dirty, Packet address: 22a2c0
Setting Dirty, Packet address: 1c2300
Setting Dirty, Packet address: 1ba340
Setting Dirty, Packet address: 212380
Setting Dirty, Packet address: 2223c0
Setting Dirty, Packet address: 1fa400
Setting Dirty, Packet address: 21a440
Setting Dirty, Packet address: 1fa480
Setting Dirty, Packet address: 20a4c0
Setting Dirty, Packet address: 182500
Setting Dirty, Packet address: 1aa540
Setting Dirty, Packet address: 202580
Setting Dirty, Packet address: 1e25c0
Setting Dirty, Packet address: 21a600
Setting Dirty, Packet address: 22a640
Setting Dirty, Packet address: 22a680
Setting Dirty, Packet address: 1da6c0
Setting Dirty, Packet address: 20a700
Setting Dirty, Packet address: 202740
Setting Dirty, Packet address: 21a780
Setting Dirty, Packet address: 1f27c0
Setting Dirty, Packet address: 1ba800
Setting Dirty, Packet address: 222840
Setting Dirty, Packet address: 21a8c0
Setting Dirty, Packet address: 172900
Setting Dirty, Packet address: 222980
Setting Dirty, Packet address: 1f29c0
Setting Dirty, Packet address: 1aaa00
Setting Dirty, Packet address: 1d2a40
Setting Dirty, Packet address: 1caa80
Setting Dirty, Packet address: 1b2ac0
Setting Dirty, Packet address: 21ab00
Setting Dirty, Packet address: 202b40
Setting Dirty, Packet address: 1fab80
Setting Dirty, Packet address: 202bc0
Setting Dirty, Packet address: 16ac00
Setting Dirty, Packet address: 21ac40
Setting Dirty, Packet address: 21ac80
Setting Dirty, Packet address: 21acc0
Setting Dirty, Packet address: 1aad40
Setting Dirty, Packet address: 212d80
Setting Dirty, Packet address: 16adc0
Setting Dirty, Packet address: 21ae00
Setting Dirty, Packet address: 19ae40
Setting Dirty, Packet address: 1a2e80
Setting Dirty, Packet address: 1faec0
Setting Dirty, Packet address: 1aaf00
Setting Dirty, Packet address: 21af40
Setting Dirty, Packet address: 1faf80
Setting Dirty, Packet address: 1fafc0
Setting Dirty, Packet address: 213000
Setting Dirty, Packet address: 1ab040
Setting Dirty, Packet address: 1f3080
Setting Dirty, Packet address: 1fb0c0
Setting Dirty, Packet address: 1e3100
Setting Dirty, Packet address: 223140
Setting Dirty, Packet address: 1fb180
Setting Dirty, Packet address: 1a7180
Setting Dirty, Packet address: 21b1c0
Setting Dirty, Packet address: 1eb200
Setting Dirty, Packet address: 1c3240
Setting Dirty, Packet address: 22b280
Setting Dirty, Packet address: 2032c0
Setting Dirty, Packet address: 203300
Setting Dirty, Packet address: 1fb340
Setting Dirty, Packet address: 20b380
Setting Dirty, Packet address: 223400
Setting Dirty, Packet address: 1cb440
Setting Dirty, Packet address: 1cb480
Setting Dirty, Packet address: 16b500
Setting Dirty, Packet address: 1cb540
Setting Dirty, Packet address: 123580
Setting Dirty, Packet address: 2035c0
Setting Dirty, Packet address: 1f3600
Setting Dirty, Packet address: 203640
Setting Dirty, Packet address: 1b3680
Setting Dirty, Packet address: 2136c0
Setting Dirty, Packet address: 223700
Setting Dirty, Packet address: 1c3740
Setting Dirty, Packet address: 1fb780
Setting Dirty, Packet address: 22b7c0
Setting Dirty, Packet address: 1f3800
Setting Dirty, Packet address: 1db840
Setting Dirty, Packet address: 1ab880
Setting Dirty, Packet address: 2138c0
Setting Dirty, Packet address: 213900
Setting Dirty, Packet address: 173940
Setting Dirty, Packet address: 1fb980
Setting Dirty, Packet address: 22b9c0
Setting Dirty, Packet address: 203a00
Setting Dirty, Packet address: 22ba40
Setting Dirty, Packet address: 1cba80
Setting Dirty, Packet address: 213ac0
Setting Dirty, Packet address: 21bb00
Setting Dirty, Packet address: 17bb40
Setting Dirty, Packet address: 1d3b80
Setting Dirty, Packet address: 1fbbc0
Setting Dirty, Packet address: 223c40
Setting Dirty, Packet address: 1fbc80
Setting Dirty, Packet address: 1ebcc0
Setting Dirty, Packet address: 1cbd00
Setting Dirty, Packet address: 1ebd40
Setting Dirty, Packet address: 223d80
Setting Dirty, Packet address: 1fbdc0
Setting Dirty, Packet address: 1e3e00
Setting Dirty, Packet address: 1c3e40
Setting Dirty, Packet address: 1cbe80
Setting Dirty, Packet address: 1e3ec0
Setting Dirty, Packet address: 21bf00
Setting Dirty, Packet address: 213f40
Setting Dirty, Packet address: 1abf80
Setting Dirty, Packet address: 1fbfc0
Setting Dirty, Packet address: 1cc000
Setting Dirty, Packet address: 1e4040
Setting Dirty, Packet address: 19c080
Setting Dirty, Packet address: 1c40c0
Setting Dirty, Packet address: 1dc100
Setting Dirty, Packet address: 1e4140
Setting Dirty, Packet address: 22c180
Setting Dirty, Packet address: 2141c0
Setting Dirty, Packet address: 204200
Setting Dirty, Packet address: 22c280
Setting Dirty, Packet address: 1c42c0
Setting Dirty, Packet address: 1ec300
Setting Dirty, Packet address: 1fc340
Setting Dirty, Packet address: 20c380
Setting Dirty, Packet address: 2243c0
Setting Dirty, Packet address: 22c400
Setting Dirty, Packet address: 224440
Setting Dirty, Packet address: 224480
Setting Dirty, Packet address: 21c4c0
Setting Dirty, Packet address: 1ac500
Setting Dirty, Packet address: 1ec540
Setting Dirty, Packet address: 224580
Setting Dirty, Packet address: 21c5c0
Setting Dirty, Packet address: 21c600
Setting Dirty, Packet address: 204640
Setting Dirty, Packet address: 224680
Setting Dirty, Packet address: 1ec6c0
Setting Dirty, Packet address: 22c700
Setting Dirty, Packet address: 21c740
Setting Dirty, Packet address: 21c780
Setting Dirty, Packet address: 1847c0
Setting Dirty, Packet address: 1fc840
Setting Dirty, Packet address: 214880
Setting Dirty, Packet address: 1fc8c0
Setting Dirty, Packet address: 1f4900
Setting Dirty, Packet address: 1e4940
Setting Dirty, Packet address: 204980
Setting Dirty, Packet address: 1fc9c0
Setting Dirty, Packet address: 20ca00
Setting Dirty, Packet address: 224a40
Setting Dirty, Packet address: 19ca80
Setting Dirty, Packet address: 21cac0
Setting Dirty, Packet address: 214b40
Setting Dirty, Packet address: 1d4b80
Setting Dirty, Packet address: 1bcbc0
Setting Dirty, Packet address: 204c00
Setting Dirty, Packet address: 21cc40
Setting Dirty, Packet address: 214c80
Setting Dirty, Packet address: 214cc0
Setting Dirty, Packet address: 21cd00
Setting Dirty, Packet address: 1fcd40
Setting Dirty, Packet address: 1f4d80
Setting Dirty, Packet address: 1ecdc0
Setting Dirty, Packet address: 204e00
Setting Dirty, Packet address: 1ece40
Setting Dirty, Packet address: 1dce80
Setting Dirty, Packet address: 1f4e80
Setting Dirty, Packet address: 1fcec0
Setting Dirty, Packet address: 22cf00
Setting Dirty, Packet address: 20cf40
Setting Dirty, Packet address: 1fcf80
Setting Dirty, Packet address: 1e4fc0
Setting Dirty, Packet address: 22d000
Setting Dirty, Packet address: 205080
Setting Dirty, Packet address: 1a50c0
Setting Dirty, Packet address: 205100
Setting Dirty, Packet address: 205140
Setting Dirty, Packet address: 1b5180
Setting Dirty, Packet address: 2151c0
Setting Dirty, Packet address: 205200
Setting Dirty, Packet address: 21d240
Setting Dirty, Packet address: 1dd280
Setting Dirty, Packet address: 1c52c0
Setting Dirty, Packet address: 195300
Setting Dirty, Packet address: 171300
Setting Dirty, Packet address: 18d340
Setting Dirty, Packet address: 1f5380
Setting Dirty, Packet address: 1f53c0
Setting Dirty, Packet address: 1ed400
Setting Dirty, Packet address: 215440
Setting Dirty, Packet address: 21d480
Setting Dirty, Packet address: 1cd500
Setting Dirty, Packet address: 21d540
Setting Dirty, Packet address: 20d580
Setting Dirty, Packet address: 21d5c0
Setting Dirty, Packet address: 20d600
Setting Dirty, Packet address: 21d640
Setting Dirty, Packet address: 22d680
Setting Dirty, Packet address: 1e56c0
Setting Dirty, Packet address: 225700
Setting Dirty, Packet address: 225740
Setting Dirty, Packet address: 1a5780
Setting Dirty, Packet address: 21d7c0
Setting Dirty, Packet address: 1bd800
Setting Dirty, Packet address: 205840
Setting Dirty, Packet address: 195880
Setting Dirty, Packet address: 2258c0
Setting Dirty, Packet address: 225900
Setting Dirty, Packet address: 1f5940
Setting Dirty, Packet address: 1d5980
Setting Dirty, Packet address: 20da00
Setting Dirty, Packet address: 1f5a40
Setting Dirty, Packet address: 215a80
Setting Dirty, Packet address: 22dac0
Setting Dirty, Packet address: 205b00
Setting Dirty, Packet address: 205b40
Setting Dirty, Packet address: 19db80
Setting Dirty, Packet address: 1f5bc0
Setting Dirty, Packet address: 205c00
Setting Dirty, Packet address: 225c40
Setting Dirty, Packet address: 225c80
Setting Dirty, Packet address: 21dcc0
Setting Dirty, Packet address: 20dd00
Setting Dirty, Packet address: 1c5d40
Setting Dirty, Packet address: 21dd80
Setting Dirty, Packet address: 225dc0
Setting Dirty, Packet address: 1dde00
Setting Dirty, Packet address: 221e00
Setting Dirty, Packet address: 1f5e40
Setting Dirty, Packet address: 1b5e80
Setting Dirty, Packet address: 215ec0
Setting Dirty, Packet address: 1adf00
Setting Dirty, Packet address: 1cdf40
Setting Dirty, Packet address: 1e5f80
Setting Dirty, Packet address: 1f5fc0
Setting Dirty, Packet address: 22e000
Setting Dirty, Packet address: 21e040
Setting Dirty, Packet address: 1fe080
Setting Dirty, Packet address: 2160c0
Setting Dirty, Packet address: 1ee100
Setting Dirty, Packet address: 1c2100
Setting Dirty, Packet address: 226140
Setting Dirty, Packet address: 1e6180
Setting Dirty, Packet address: 12e1c0
Setting Dirty, Packet address: 1e6200
Setting Dirty, Packet address: 1fe240
Setting Dirty, Packet address: 1fe280
Setting Dirty, Packet address: 2162c0
Setting Dirty, Packet address: 226300
Setting Dirty, Packet address: 1f6340
Setting Dirty, Packet address: 20e380
Setting Dirty, Packet address: 21e3c0
Setting Dirty, Packet address: 2163c0
Setting Dirty, Packet address: 1be440
Setting Dirty, Packet address: 20e480
Setting Dirty, Packet address: 1064c0
Setting Dirty, Packet address: 216500
Setting Dirty, Packet address: 1c6540
Setting Dirty, Packet address: 1ee580
Setting Dirty, Packet address: 2165c0
Setting Dirty, Packet address: 1f6600
Setting Dirty, Packet address: 21e640
Setting Dirty, Packet address: 206680
Setting Dirty, Packet address: 156680
Setting Dirty, Packet address: 1de6c0
Setting Dirty, Packet address: 226740
Setting Dirty, Packet address: 1e6780
Setting Dirty, Packet address: 1fe7c0
Setting Dirty, Packet address: 1f6800
Setting Dirty, Packet address: 21e840
Setting Dirty, Packet address: 1f6880
Setting Dirty, Packet address: 1fe8c0
Setting Dirty, Packet address: 1a6900
Setting Dirty, Packet address: 1d6940
Setting Dirty, Packet address: 21a940
Setting Dirty, Packet address: 1ae980
Setting Dirty, Packet address: 1f69c0
Setting Dirty, Packet address: 1fea00
Setting Dirty, Packet address: 1b6a40
Setting Dirty, Packet address: 206a80
Setting Dirty, Packet address: 16eac0
Setting Dirty, Packet address: 16eb00
Setting Dirty, Packet address: 226b40
Setting Dirty, Packet address: 216b80
Setting Dirty, Packet address: 20ebc0
Setting Dirty, Packet address: 226c00
Setting Dirty, Packet address: 22ec40
Setting Dirty, Packet address: 216c80
Setting Dirty, Packet address: 176cc0
Setting Dirty, Packet address: 1ded00
Setting Dirty, Packet address: 20ed40
Setting Dirty, Packet address: 22ed80
Setting Dirty, Packet address: 216dc0
Setting Dirty, Packet address: 1eee00
Setting Dirty, Packet address: 226e40
Setting Dirty, Packet address: 1eee40
Setting Dirty, Packet address: 20ee80
Setting Dirty, Packet address: 216ec0
Setting Dirty, Packet address: 1c6f00
Setting Dirty, Packet address: 1d6f40
Setting Dirty, Packet address: 21ef80
Setting Dirty, Packet address: 20efc0
Setting Dirty, Packet address: 207000
Setting Dirty, Packet address: 1f7040
Setting Dirty, Packet address: 1f7080
Setting Dirty, Packet address: 2270c0
Setting Dirty, Packet address: 15f100
Setting Dirty, Packet address: 207140
Setting Dirty, Packet address: 1d7180
Setting Dirty, Packet address: 18f1c0
Setting Dirty, Packet address: 207200
Setting Dirty, Packet address: 1ef240
Setting Dirty, Packet address: 20f280
Setting Dirty, Packet address: 1972c0
Setting Dirty, Packet address: 207300
Setting Dirty, Packet address: 187340
Setting Dirty, Packet address: 1f7380
Setting Dirty, Packet address: 15f3c0
Setting Dirty, Packet address: 177400
Setting Dirty, Packet address: 227440
Setting Dirty, Packet address: 227480
Setting Dirty, Packet address: 1e74c0
Setting Dirty, Packet address: 1db4c0
Setting Dirty, Packet address: 20f500
Setting Dirty, Packet address: 217540
Setting Dirty, Packet address: 22f580
Setting Dirty, Packet address: 21f5c0
Setting Dirty, Packet address: 217600
Setting Dirty, Packet address: 20f640
Setting Dirty, Packet address: 227680
Setting Dirty, Packet address: 21f6c0
Setting Dirty, Packet address: 21f700
Setting Dirty, Packet address: 1d7740
Setting Dirty, Packet address: 21f780
Setting Dirty, Packet address: 14f7c0
Setting Dirty, Packet address: 20f800
Setting Dirty, Packet address: 207840
Setting Dirty, Packet address: 20f880
Setting Dirty, Packet address: 1ff8c0
Setting Dirty, Packet address: 1c7900
Setting Dirty, Packet address: 1ef940
Setting Dirty, Packet address: 207980
Setting Dirty, Packet address: 2179c0
Setting Dirty, Packet address: 21fa00
Setting Dirty, Packet address: 1e7a40
Setting Dirty, Packet address: 22fa80
Setting Dirty, Packet address: 21fac0
Setting Dirty, Packet address: 1e7b00
Setting Dirty, Packet address: 1a7b40
Setting Dirty, Packet address: 227b80
Setting Dirty, Packet address: 217bc0
Setting Dirty, Packet address: 207c00
Setting Dirty, Packet address: 1e3c00
Setting Dirty, Packet address: 227c40
Setting Dirty, Packet address: 20fc80
Setting Dirty, Packet address: 1dfcc0
Setting Dirty, Packet address: 21fd00
Setting Dirty, Packet address: 19fd40
Setting Dirty, Packet address: 227d40
Setting Dirty, Packet address: 21fd80
Setting Dirty, Packet address: 217dc0
Setting Dirty, Packet address: 1dfe00
Setting Dirty, Packet address: 1a7e40
Setting Dirty, Packet address: 20fe80
Setting Dirty, Packet address: 21fec0
Setting Dirty, Packet address: 207f00
Setting Dirty, Packet address: 21ff40
Setting Dirty, Packet address: 1c3f40
Setting Dirty, Packet address: 22ff80
Setting Dirty, Packet address: 1cffc0
Setting Dirty, Packet address: 1e8000
Setting Dirty, Packet address: 210040
Setting Dirty, Packet address: 228080
Setting Dirty, Packet address: 2000c0
Setting Dirty, Packet address: 220100
Setting Dirty, Packet address: 218140
Setting Dirty, Packet address: 1f0180
Setting Dirty, Packet address: 2181c0
Setting Dirty, Packet address: 228240
Setting Dirty, Packet address: 22c240
Setting Dirty, Packet address: 1d8280
Setting Dirty, Packet address: 2082c0
Setting Dirty, Packet address: f8300
Setting Dirty, Packet address: 228380
Setting Dirty, Packet address: 2203c0
Setting Dirty, Packet address: 1c0400
Setting Dirty, Packet address: 200440
Setting Dirty, Packet address: 1f8440
Setting Dirty, Packet address: 200480
Setting Dirty, Packet address: 2184c0
Setting Dirty, Packet address: 1f8500
Setting Dirty, Packet address: 200580
Setting Dirty, Packet address: 2105c0
Setting Dirty, Packet address: 1e8600
Setting Dirty, Packet address: 1f8640
Setting Dirty, Packet address: 1d8680
Setting Dirty, Packet address: 2306c0
Setting Dirty, Packet address: 1e8700
Setting Dirty, Packet address: 1d0740
Setting Dirty, Packet address: 208780
Setting Dirty, Packet address: 2007c0
Setting Dirty, Packet address: 230800
Setting Dirty, Packet address: 224800
Setting Dirty, Packet address: 1e8840
Setting Dirty, Packet address: 210880
Setting Dirty, Packet address: 2088c0
Setting Dirty, Packet address: 210900
Setting Dirty, Packet address: 1a0940
Setting Dirty, Packet address: 190980
Setting Dirty, Packet address: 2109c0
Setting Dirty, Packet address: 1e8a00
Setting Dirty, Packet address: 168a40
Setting Dirty, Packet address: 200a80
Setting Dirty, Packet address: 1f8ac0
Setting Dirty, Packet address: 230b00
Setting Dirty, Packet address: 1b4b00
Setting Dirty, Packet address: 1f8b40
Setting Dirty, Packet address: 208b80
Setting Dirty, Packet address: 1c8bc0
Setting Dirty, Packet address: 210c00
Setting Dirty, Packet address: 218c40
Setting Dirty, Packet address: 208c80
Setting Dirty, Packet address: 228cc0
Setting Dirty, Packet address: 1d8d00
Setting Dirty, Packet address: 218d40
Setting Dirty, Packet address: 200d80
Setting Dirty, Packet address: 230dc0
Setting Dirty, Packet address: 218e00
Setting Dirty, Packet address: 228e40
Setting Dirty, Packet address: 218e80
Setting Dirty, Packet address: 1f0ec0
Setting Dirty, Packet address: 198f00
Setting Dirty, Packet address: 210f40
Setting Dirty, Packet address: 200fc0
Setting Dirty, Packet address: 1d9000
Setting Dirty, Packet address: 211040
Setting Dirty, Packet address: 205040
Setting Dirty, Packet address: 219080
Setting Dirty, Packet address: 1c10c0
Setting Dirty, Packet address: 211100
Setting Dirty, Packet address: 1e9140
Setting Dirty, Packet address: 1c1180
Setting Dirty, Packet address: 2111c0
Setting Dirty, Packet address: 199200
Setting Dirty, Packet address: 229240
Setting Dirty, Packet address: 1e9280
Setting Dirty, Packet address: 2192c0
Setting Dirty, Packet address: 199340
Setting Dirty, Packet address: 221380
Setting Dirty, Packet address: 2293c0
Setting Dirty, Packet address: 221400
Setting Dirty, Packet address: 221440
Setting Dirty, Packet address: 221480
Setting Dirty, Packet address: 2294c0
Setting Dirty, Packet address: 2154c0
Setting Dirty, Packet address: 229500
Setting Dirty, Packet address: 1f9580
Setting Dirty, Packet address: 1f15c0
Setting Dirty, Packet address: 1a1600
Setting Dirty, Packet address: 1e9640
Setting Dirty, Packet address: 211680
Setting Dirty, Packet address: 1f16c0
Setting Dirty, Packet address: 221700
Setting Dirty, Packet address: 179740
Setting Dirty, Packet address: 211780
Setting Dirty, Packet address: 1997c0
Setting Dirty, Packet address: 219800
Setting Dirty, Packet address: 219840
Setting Dirty, Packet address: 211880
Setting Dirty, Packet address: 1d98c0
Setting Dirty, Packet address: 231940
Setting Dirty, Packet address: 229980
Setting Dirty, Packet address: 2219c0
Setting Dirty, Packet address: 221a00
Setting Dirty, Packet address: 219a40
Setting Dirty, Packet address: 211a80
Setting Dirty, Packet address: 201ac0
Setting Dirty, Packet address: 1e9b00
Setting Dirty, Packet address: 1c9b40
Setting Dirty, Packet address: 1c1b80
Setting Dirty, Packet address: 171bc0
Setting Dirty, Packet address: 1d1c00
Setting Dirty, Packet address: 1e9c40
Setting Dirty, Packet address: 181c80
Setting Dirty, Packet address: 219cc0
Setting Dirty, Packet address: 221d00
Setting Dirty, Packet address: 219d40
Setting Dirty, Packet address: 191dc0
Setting Dirty, Packet address: 209e00
Setting Dirty, Packet address: 211e40
Setting Dirty, Packet address: 221e80
Setting Dirty, Packet address: 1e9ec0
Setting Dirty, Packet address: 229f00
Evicting a random entry 
Regenerated address in the writebackRDBIEntry(): 1e9e00
Regenerated address from the block pointer: 1e9e00
Regenerated address in the writebackRDBIEntry(): 1e9e40
Regenerated address from the block pointer: 1e9e40
Regenerated address in the writebackRDBIEntry(): 1e9ec0
Regenerated address from the block pointer: 1e9ec0
Regenerated address in the writebackRDBIEntry(): 1e9f00
Regenerated address from the block pointer: 229f00
Regenerated address in the writebackRDBIEntry(): 1e9f80
Regenerated address from the block pointer: 1e9f80
Regenerated address in the writebackRDBIEntry(): 1e9fc0
Regenerated address from the block pointer: 1e9fc0
