Global frequency set at 1000000000000 ticks per second
Hey, I am a DBICache component + Deepanjali
gem5 Simulator System.  https://www.gem5.org
gem5 is copyrighted software; use the --copyright option for details.

gem5 version 22.0.0.2
gem5 compiled Mar 27 2023 05:27:08
gem5 started Mar 27 2023 05:28:41
gem5 executing on v100-gpu-4, pid 12070
command line: build/X86/gem5.opt --stats-file =trew_dbi.txt configs/learning_gem5/DebugDBI/DBICache/config.py test-benchmark/test -n 1000000 -k 4 -t 10

Beginning simulation!
cpkt address: 4c80
cpkt address: 1ccc0
cpkt address: 4b80
cpkt address: 4bc0
cpkt address: 68c0
cpkt address: 1cb80
cpkt address: 1cbc0
cpkt address: 14700
cpkt address: 1c740
cpkt address: 29d00
cpkt address: 21d00
cpkt address: b540
cpkt address: b580
cpkt address: 20740
cpkt address: 14780
cpkt address: 14740
cpkt address: 10b80
cpkt address: 10bc0
cpkt address: 2a000
cpkt address: 36000
cpkt address: 4d40
cpkt address: 4d80
cpkt address: 4dc0
cpkt address: 2e000
cpkt address: 61c0
cpkt address: 12240
cpkt address: 12280
cpkt address: 6180
cpkt address: 1cc00
cpkt address: 3780
cpkt address: 2f840
cpkt address: 38c0
cpkt address: 3980
cpkt address: 39c0
cpkt address: 2ba00
cpkt address: 2ba40
cpkt address: 2cc40
cpkt address: 5c80
cpkt address: 5cc0
cpkt address: 20bc0
cpkt address: 1b5c0
cpkt address: 53c0
cpkt address: 9d80
cpkt address: 9d00
cpkt address: 12900
cpkt address: 12940
cpkt address: 129c0
cpkt address: 6a00
cpkt address: 20b80
cpkt address: 135c0
cpkt address: 1b600
cpkt address: 2b780
cpkt address: 2b7c0
cpkt address: 1f5c0
cpkt address: 1d400
cpkt address: 324c0
cpkt address: 9c40
cpkt address: 5700
cpkt address: 5740
cpkt address: 9780
cpkt address: 57c0
cpkt address: 5800
cpkt address: 9980
cpkt address: 10b80
cpkt address: 8bc0
cpkt address: 59c0
cpkt address: 5a00
cpkt address: 5b80
cpkt address: 5bc0
cpkt address: 12a00
cpkt address: ea80
cpkt address: 1eac0
cpkt address: 38c40
cpkt address: 1fb80
cpkt address: b600
cpkt address: 6ac0
cpkt address: 4ac0
cpkt address: 4b00
cpkt address: 37b40
cpkt address: 2bb80
cpkt address: 4c00
cpkt address: 20fc0
cpkt address: 11200
cpkt address: 37a00
cpkt address: b5c0
cpkt address: 3bb80
cpkt address: 7b80
cpkt address: 2b800
cpkt address: 2b840
cpkt address: 2b8c0
cpkt address: 2bb80
cpkt address: 2bbc0
cpkt address: 37c00
cpkt address: 2bc40
cpkt address: 2bc80
cpkt address: 2bcc0
cpkt address: 2bd00
cpkt address: 37d40
cpkt address: 33e80
cpkt address: 111c0
cpkt address: bac0
cpkt address: bb00
cpkt address: bb40
cpkt address: bb80
cpkt address: 1e340
cpkt address: a400
cpkt address: 12440
cpkt address: 38b80
cpkt address: 38bc0
cpkt address: 2cc00
cpkt address: 2cc40
cpkt address: 38c80
cpkt address: 2ccc0
cpkt address: 38d00
cpkt address: 3cc00
cpkt address: 34c40
cpkt address: 3cc40
cpkt address: 36000
cpkt address: bd40
cpkt address: 3cc80
cpkt address: 2cd00
cpkt address: 3e000
cpkt address: 1f5c0
cpkt address: 1f600
cpkt address: 13640
cpkt address: 37c0
cpkt address: 37800
cpkt address: 3840
cpkt address: 300c0
cpkt address: 3880
cpkt address: 2c1c0
cpkt address: 2c200
cpkt address: 378c0
cpkt address: 37900
cpkt address: 37940
cpkt address: 3c0
cpkt address: 37980
cpkt address: 400
cpkt address: 2b9c0
cpkt address: 440
cpkt address: 2ba00
cpkt address: 3a40
cpkt address: 2ba80
cpkt address: 2bac0
cpkt address: 37b00
cpkt address: 3c700
cpkt address: 3bb40
cpkt address: 3c740
cpkt address: 3c780
cpkt address: 2c7c0
cpkt address: 3bbc0
cpkt address: 2c800
cpkt address: 2c840
cpkt address: 3bc00
cpkt address: 3c880
cpkt address: 3bc40
cpkt address: 3c8c0
cpkt address: 2c900
cpkt address: 3c940
cpkt address: 37c80
cpkt address: 3c980
cpkt address: 37cc0
cpkt address: 2c9c0
cpkt address: 3ca00
cpkt address: 3bd00
cpkt address: 3ca40
cpkt address: 2bd40
cpkt address: 3ca80
cpkt address: 37d80
cpkt address: 2cac0
cpkt address: 2cb00
cpkt address: 3cb40
cpkt address: 3bdc0
cpkt address: 2cb80
cpkt address: 2cbc0
cpkt address: 2cc00
cpkt address: 3be00
cpkt address: 38c40
cpkt address: 2cc80
cpkt address: 3ccc0
cpkt address: 37e40
cpkt address: 3cd00
cpkt address: 3cd40
cpkt address: 2cd80
cpkt address: 37e80
cpkt address: 2cdc0
cpkt address: 37ec0
cpkt address: 3ce00
cpkt address: 37f00
cpkt address: 2ce40
cpkt address: 3bf40
cpkt address: 3ce80
cpkt address: 37f80
cpkt address: 3cec0
cpkt address: 3bfc0
cpkt address: 2cf00
cpkt address: 3cf40
cpkt address: 2cf80
cpkt address: 2d000
cpkt address: 2a000
cpkt address: 36040
cpkt address: 2a0c0
cpkt address: 22100
cpkt address: 22140
cpkt address: 22180
cpkt address: 224c0
cpkt address: 36500
cpkt address: 32600
cpkt address: 36640
cpkt address: 36680
cpkt address: 326c0
cpkt address: 39280
cpkt address: 32740
cpkt address: 352c0
cpkt address: 22840
cpkt address: 3a880
cpkt address: 3a8c0
cpkt address: 2a9c0
cpkt address: 32a00
cpkt address: 22d00
cpkt address: 3000
cpkt address: 2b180
cpkt address: 231c0
cpkt address: 2b200
cpkt address: 3280
cpkt address: 3400
cpkt address: 3440
cpkt address: 2b480
cpkt address: 34c0
cpkt address: 2b500
cpkt address: 35c0
cpkt address: 2b700
cpkt address: 2b740
cpkt address: 3780
cpkt address: 377c0
cpkt address: 3f800
cpkt address: 37840
cpkt address: 37880
cpkt address: 38c0
cpkt address: 3f900
cpkt address: 3f940
cpkt address: 3f980
cpkt address: 3f9c0
cpkt address: 3fa00
cpkt address: 37a40
cpkt address: 3fa80
cpkt address: 37ac0
cpkt address: 2bb00
cpkt address: 3fb40
cpkt address: 37b80
cpkt address: 3fbc0
cpkt address: 2bc00
cpkt address: 37c40
cpkt address: 3bc80
cpkt address: 21cc0
cpkt address: 3fcc0
cpkt address: 37d00
cpkt address: 3bd40
cpkt address: 35d00
cpkt address: 3fd80
cpkt address: 3fdc0
cpkt address: 37e00
cpkt address: 29e40
cpkt address: 3be40
cpkt address: 29e80
cpkt address: 3fe80
cpkt address: 3bec0
cpkt address: 3bf00
cpkt address: 29ec0
cpkt address: 37f40
cpkt address: 3ff80
cpkt address: 3ffc0
cpkt address: 1f00
cpkt address: 40
cpkt address: 80
cpkt address: 1f40
cpkt address: 400c0
cpkt address: 100
cpkt address: 140
cpkt address: 40180
cpkt address: 41140
cpkt address: 1c0
cpkt address: 41200
cpkt address: 40200
cpkt address: 41240
cpkt address: 2c240
cpkt address: 35280
cpkt address: 280
cpkt address: 392c0
cpkt address: 40340
cpkt address: 2c380
cpkt address: 2c3c0
cpkt address: 2c400
cpkt address: 40440
cpkt address: 40480
cpkt address: 41480
cpkt address: 404c0
cpkt address: 40500
cpkt address: 40540
cpkt address: 40580
cpkt address: 405c0
cpkt address: 2c600
cpkt address: 2c640
cpkt address: 2c680
cpkt address: 406c0
cpkt address: 2c700
cpkt address: 40740
cpkt address: 2c780
cpkt address: 3c7c0
cpkt address: 40800
cpkt address: 3c840
cpkt address: 40880
cpkt address: 408c0
cpkt address: 3c900
cpkt address: 2c940
cpkt address: 40980
cpkt address: 3c9c0
cpkt address: 40a00
cpkt address: 2ca40
cpkt address: 40a80
cpkt address: 3cac0
cpkt address: 3cb00
cpkt address: 40b40
cpkt address: 40b80
cpkt address: 417c0
cpkt address: 3cbc0
cpkt address: 38c00
cpkt address: 25800
cpkt address: 2cc40
cpkt address: 40c80
cpkt address: 40cc0
cpkt address: 38d00
cpkt address: 40d40
cpkt address: 3cd80
cpkt address: 3cdc0
cpkt address: 40e00
cpkt address: 3ce40
cpkt address: 40e80
cpkt address: 40ec0
cpkt address: 40f00
cpkt address: 40f40
cpkt address: 40f80
cpkt address: 3cfc0
cpkt address: 36000
cpkt address: 2a040
cpkt address: 42080
cpkt address: 420c0
cpkt address: 36100
cpkt address: 36140
cpkt address: 36180
cpkt address: 361c0
cpkt address: 36280
cpkt address: 362c0
cpkt address: 36300
cpkt address: 41bc0
cpkt address: 36340
cpkt address: 42380
cpkt address: 363c0
cpkt address: 31c00
cpkt address: 42400
cpkt address: 36440
cpkt address: 42480
cpkt address: 41c40
cpkt address: 364c0
cpkt address: 29c80
cpkt address: 22500
cpkt address: 42540
cpkt address: 36580
cpkt address: 29cc0
cpkt address: 425c0
cpkt address: 42600
cpkt address: 29d00
cpkt address: 42640
cpkt address: 32680
cpkt address: 366c0
cpkt address: 42700
cpkt address: 42740
cpkt address: 42780
cpkt address: 367c0
cpkt address: 29e00
cpkt address: 42800
cpkt address: 36840
cpkt address: 42880
cpkt address: 41e40
cpkt address: 428c0
cpkt address: 42940
cpkt address: 41e80
cpkt address: 42980
cpkt address: 429c0
cpkt address: 1ec0
cpkt address: 2aa00
cpkt address: 42a40
cpkt address: 2aa80
cpkt address: 29f00
cpkt address: 42ac0
cpkt address: 42b00
cpkt address: 42b40
cpkt address: 41f40
cpkt address: 42b80
cpkt address: 1f80
cpkt address: 42c40
cpkt address: 2ac80
cpkt address: 2acc0
cpkt address: 2ad00
cpkt address: 44000
cpkt address: 42d40
cpkt address: 44040
cpkt address: 42d80
cpkt address: 2ae00
cpkt address: 40080
cpkt address: 440c0
cpkt address: 32f00
cpkt address: 44100
cpkt address: 2af40
cpkt address: 2af80
cpkt address: 42fc0
cpkt address: 40140
cpkt address: 2b000
cpkt address: 2b040
cpkt address: 43080
cpkt address: 180
cpkt address: 430c0
cpkt address: 401c0
cpkt address: 2b100
cpkt address: 2b140
cpkt address: 3180
cpkt address: 44200
cpkt address: 431c0
cpkt address: 43200
cpkt address: 2b240
cpkt address: 44240
cpkt address: 2b280
cpkt address: 40280
cpkt address: 432c0
cpkt address: 2b300
cpkt address: 402c0
cpkt address: 433c0
cpkt address: 2b400
cpkt address: 44300
cpkt address: 43440
cpkt address: 2c340
cpkt address: 3480
cpkt address: 2b4c0
cpkt address: 43500
cpkt address: 44380
cpkt address: 2b580
cpkt address: 2b5c0
cpkt address: 443c0
cpkt address: 43600
cpkt address: 40400
cpkt address: 43640
cpkt address: 2b680
cpkt address: 436c0
cpkt address: 2c440
cpkt address: 43700
cpkt address: 43740
cpkt address: 37780
cpkt address: 2c480
cpkt address: 3f7c0
cpkt address: 43800
cpkt address: 2c4c0
cpkt address: 3f840
cpkt address: 43880
cpkt address: 438c0
cpkt address: 44500
cpkt address: 43900
cpkt address: 3940
cpkt address: 2b980
cpkt address: 44540
cpkt address: 439c0
cpkt address: 44580
cpkt address: 43a00
cpkt address: 43a40
cpkt address: 37a80
cpkt address: 445c0
cpkt address: 43ac0
cpkt address: 43b00
cpkt address: 2bb40
cpkt address: 44600
cpkt address: 3bb80
cpkt address: 44640
cpkt address: 37bc0
cpkt address: 3fc00
cpkt address: 3fc40
cpkt address: 44680
cpkt address: 43c80
cpkt address: 43cc0
cpkt address: 3fd00
cpkt address: 2c6c0
cpkt address: 43d40
cpkt address: 40700
cpkt address: 43d80
cpkt address: 43dc0
cpkt address: 43e00
cpkt address: 2c740
cpkt address: 3fe40
cpkt address: 43e80
cpkt address: 3fec0
cpkt address: 44780
cpkt address: 3ff00
cpkt address: 407c0
cpkt address: 3ff40
cpkt address: 43f80
cpkt address: 43fc0
cpkt address: 44800
cpkt address: 38000
cpkt address: 40040
cpkt address: 38080
cpkt address: 40840
cpkt address: c0
cpkt address: 2c880
cpkt address: 38100
cpkt address: 2c8c0
cpkt address: 44900
cpkt address: 38140
cpkt address: 40940
cpkt address: 44180
cpkt address: 44980
cpkt address: 441c0
cpkt address: 38200
cpkt address: 38240
cpkt address: 409c0
cpkt address: 44280
cpkt address: 442c0
cpkt address: 38300
cpkt address: 2ca00
cpkt address: 44340
cpkt address: 40a40
cpkt address: 40380
cpkt address: 2ca80
cpkt address: 44ac0
cpkt address: 403c0
cpkt address: 44400
cpkt address: 44b00
cpkt address: 44440
cpkt address: 2cb40
cpkt address: 3cb80
cpkt address: 44480
cpkt address: 444c0
cpkt address: 46300
cpkt address: 2c500
cpkt address: 46340
cpkt address: 2c540
cpkt address: 36380
cpkt address: 38580
cpkt address: 463c0
cpkt address: 385c0
cpkt address: 46400
cpkt address: 38600
cpkt address: 40640
cpkt address: 42440
cpkt address: 40680
cpkt address: 46480
cpkt address: 446c0
cpkt address: 44700
cpkt address: 464c0
cpkt address: 44740
cpkt address: 42500
cpkt address: 40780
cpkt address: 36540
cpkt address: 447c0
cpkt address: 42580
cpkt address: 38800
cpkt address: 365c0
cpkt address: 44840
cpkt address: 44880
cpkt address: 388c0
cpkt address: 36600
cpkt address: 40900
cpkt address: 44940
cpkt address: 32640
cpkt address: 2c980
cpkt address: 36780
cpkt address: 468c0
cpkt address: 46940
cpkt address: 389c0
cpkt address: 46980
cpkt address: 44a00
cpkt address: 2aac0
cpkt address: 46b00
cpkt address: 38a40
cpkt address: 43380
cpkt address: 44a80
cpkt address: 2b3c0
cpkt address: 38ac0
cpkt address: 38b00
cpkt address: 43400
cpkt address: 38b40
cpkt address: 38b80
cpkt address: 2b440
cpkt address: 40bc0
cpkt address: 44c00
cpkt address: 44c40
cpkt address: 43480
cpkt address: 38c80
cpkt address: 38cc0
cpkt address: 44d00
cpkt address: 434c0
cpkt address: 44d40
cpkt address: 40d80
cpkt address: 40dc0
cpkt address: 3500
cpkt address: 435c0
cpkt address: 2ce00
cpkt address: 2b600
cpkt address: 47680
cpkt address: 40e40
cpkt address: 2b6c0
cpkt address: 44e80
cpkt address: 421c0
cpkt address: 48b80
cpkt address: 40d00
cpkt address: 44b40
cpkt address: 40b00
cpkt address: 462c0
cpkt address: 42cc0
cpkt address: 45280
cpkt address: 3e3c0
cpkt address: 46580
cpkt address: 48ac0
cpkt address: 9a00
cpkt address: 38a80
cpkt address: 46780
cpkt address: 38a00
cpkt address: 427c0
cpkt address: 5a80
cpkt address: 48a40
cpkt address: 42340
cpkt address: 5ac0
cpkt address: 5b00
cpkt address: 489c0
cpkt address: 11b40
cpkt address: 38980
cpkt address: 14e80
cpkt address: 37400
cpkt address: 488c0
cpkt address: 48940
cpkt address: 20ec0
cpkt address: 48900
cpkt address: 14f00
cpkt address: 3e500
cpkt address: 47180
cpkt address: 20f40
cpkt address: 47440
cpkt address: 41c80
cpkt address: 20f80
cpkt address: 41ec0
cpkt address: 38280
cpkt address: 14fc0
cpkt address: 21000
cpkt address: 46000
cpkt address: 42300
cpkt address: 42040
cpkt address: 40c00
cpkt address: 41600
cpkt address: 45d80
cpkt address: 9600
cpkt address: 47080
cpkt address: 5640
cpkt address: 38880
cpkt address: 20d00
cpkt address: 20d40
cpkt address: 20d80
cpkt address: 1ce00
cpkt address: 1ce40
cpkt address: 3e8c0
cpkt address: 1cdc0
cpkt address: 9680
cpkt address: 11980
cpkt address: 11180
cpkt address: 51c0
cpkt address: 11b80
cpkt address: 11bc0
cpkt address: 45d40
cpkt address: 477c0
cpkt address: 44d80
cpkt address: ba80
cpkt address: 39d80
cpkt address: 3b80
cpkt address: 46440
cpkt address: 48d80
cpkt address: 44ec0
cpkt address: 44f00
cpkt address: 44f40
cpkt address: 44dc0
cpkt address: 48e00
cpkt address: 44f80
cpkt address: 48e40
cpkt address: 2cec0
cpkt address: 40fc0
cpkt address: 48f00
cpkt address: 44fc0
cpkt address: 37440
cpkt address: 45ac0
cpkt address: 42140
cpkt address: 41900
cpkt address: 3b440
cpkt address: 43f40
cpkt address: 4f440
cpkt address: 40000
cpkt address: 37600
cpkt address: 45080
cpkt address: 46240
cpkt address: 42280
cpkt address: 45980
cpkt address: 47600
cpkt address: 382c0
cpkt address: 437c0
cpkt address: 46500
cpkt address: 362c0
cpkt address: 3e300
cpkt address: 422c0
cpkt address: 37740
cpkt address: 48640
cpkt address: 41cc0
cpkt address: 38040
cpkt address: 479c0
cpkt address: 43e40
cpkt address: 426c0
cpkt address: 415c0
cpkt address: 3900
cpkt address: 2ca80
cpkt address: 4ca80
cpkt address: 42f00
cpkt address: 4cd80
cpkt address: 368c0
cpkt address: 35480
cpkt address: 45fc0
cpkt address: 47500
cpkt address: 46a00
cpkt address: 45840
cpkt address: 48080
cpkt address: 43300
cpkt address: 29d40
cpkt address: 36440
cpkt address: 3e480
cpkt address: 41500
cpkt address: 47340
cpkt address: 43d00
cpkt address: 42c00
cpkt address: 36800
cpkt address: 3e5c0
cpkt address: 41400
cpkt address: 29cc0
cpkt address: 43ec0
cpkt address: 45cc0
cpkt address: 38dc0
cpkt address: 467c0
cpkt address: 3eb00
cpkt address: 47140
cpkt address: 424c0
cpkt address: f5c0
cpkt address: 376c0
cpkt address: 36880
cpkt address: f600
cpkt address: 412c0
cpkt address: 47a00
cpkt address: 48c40
cpkt address: 48c80
cpkt address: 9800
cpkt address: 5840
cpkt address: 96c0
cpkt address: 4bd00
cpkt address: 3e440
cpkt address: 4ea00
cpkt address: 3acc0
cpkt address: 1ec0
cpkt address: 1e80
cpkt address: 2b2c0
cpkt address: 3b300
cpkt address: 4f340
cpkt address: 43540
cpkt address: 2b640
cpkt address: 46d00
cpkt address: 42c80
cpkt address: 46880
cpkt address: 3f7c0
cpkt address: 9f00
cpkt address: 3a9c0
cpkt address: 480c0
cpkt address: 42bc0
cpkt address: 46700
cpkt address: 2ad40
cpkt address: 45ec0
cpkt address: 45e80
cpkt address: 414c0
cpkt address: 47e80
cpkt address: 373c0
cpkt address: 46dc0
cpkt address: 45380
cpkt address: 2b400
cpkt address: 3be80
cpkt address: 40100
cpkt address: 37380
cpkt address: 35200
cpkt address: 46e80
cpkt address: 4f400
cpkt address: 45780
cpkt address: 47380
cpkt address: 37dc0
cpkt address: 46b40
cpkt address: 4bf40
cpkt address: 50080
cpkt address: 41580
cpkt address: 45c00
cpkt address: 47d40
cpkt address: 47300
cpkt address: 29c80
cpkt address: 38180
cpkt address: 381c0
cpkt address: 55c80
cpkt address: 43340
cpkt address: 3bcc0
cpkt address: 29c80
cpkt address: 45c80
cpkt address: 48140
cpkt address: 469c0
cpkt address: 392c0
cpkt address: 41540
cpkt address: 4f380
cpkt address: 3b600
cpkt address: 2b6c0
cpkt address: 43580
cpkt address: 2aa00
cpkt address: 48200
cpkt address: 45440
cpkt address: 47580
cpkt address: 481c0
cpkt address: 2aa40
cpkt address: 45500
cpkt address: 48180
cpkt address: 46a40
cpkt address: 374c0
cpkt address: 48480
cpkt address: 452c0
cpkt address: 41b40
cpkt address: 47b80
cpkt address: 46680
cpkt address: 485c0
cpkt address: 40600
cpkt address: 217c0
cpkt address: 4e6c0
cpkt address: 4c1c0
cpkt address: 47740
cpkt address: 360c0
cpkt address: 48680
cpkt address: 386c0
cpkt address: 47700
cpkt address: 2c580
cpkt address: 38e00
cpkt address: 4dac0
cpkt address: 476c0
cpkt address: 41300
cpkt address: 42a00
cpkt address: 5aa40
cpkt address: 4f740
cpkt address: 41a40
cpkt address: 38ec0
cpkt address: 38380
cpkt address: 383c0
cpkt address: 37480
cpkt address: 38440
cpkt address: 3e540
cpkt address: 48400
cpkt address: 37500
cpkt address: 2ce80
cpkt address: 58200
cpkt address: 44e00
cpkt address: 23200
cpkt address: 41080
cpkt address: 3cf00
cpkt address: 419c0
cpkt address: 47280
cpkt address: 3fac0
cpkt address: 43980
cpkt address: 3b980
cpkt address: 46c80
cpkt address: 3f8c0
cpkt address: 2c9c0
cpkt address: 4c9c0
cpkt address: 47980
cpkt address: 48240
cpkt address: 46fc0
cpkt address: 3740
cpkt address: 460c0
cpkt address: 2b080
cpkt address: 43680
cpkt address: 2ad80
cpkt address: 42180
cpkt address: 4da40
cpkt address: 1e40
cpkt address: 3b200
cpkt address: 280
cpkt address: 47800
cpkt address: 36880
cpkt address: 36500
cpkt address: 4a500
cpkt address: 50280
cpkt address: 47780
cpkt address: 486c0
cpkt address: 280
cpkt address: 45700
cpkt address: 50280
cpkt address: 41a00
cpkt address: 2b400
cpkt address: 48280
cpkt address: 47940
cpkt address: 2b6c0
cpkt address: 47400
cpkt address: 3f880
cpkt address: 2c940
cpkt address: 4c940
cpkt address: 58ec0
cpkt address: 482c0
cpkt address: 47200
cpkt address: 48fc0
cpkt address: 46800
cpkt address: 458c0
cpkt address: 47240
cpkt address: 46080
cpkt address: 3a880
cpkt address: 4e8c0
cpkt address: 45a80
cpkt address: 45c40
cpkt address: 47d80
cpkt address: 43b40
cpkt address: 41f00
cpkt address: 2a9c0
cpkt address: 47a80
cpkt address: 2cd40
cpkt address: 48300
cpkt address: 47b00
cpkt address: 29dc0
cpkt address: 46c40
cpkt address: 47a40
cpkt address: 48d00
cpkt address: 4f240
cpkt address: 39380
cpkt address: 3bb40
cpkt address: 48340
cpkt address: 2ab80
cpkt address: 46180
cpkt address: 2acc0
cpkt address: 47dc0
cpkt address: 59500
cpkt address: 42dc0
cpkt address: 473c0
cpkt address: 47e40
cpkt address: 4f780
cpkt address: 56180
cpkt address: 42e00
cpkt address: 2c5c0
cpkt address: 48380
cpkt address: 3b9c0
cpkt address: 42f40
cpkt address: 2c9c0
cpkt address: 4c9c0
cpkt address: 4f280
cpkt address: 4d680
cpkt address: 4e280
cpkt address: 362c0
cpkt address: 4e2c0
cpkt address: 472c0
cpkt address: 47bc0
cpkt address: 3fa40
cpkt address: 45240
cpkt address: 3e400
cpkt address: 3b980
cpkt address: 48b00
cpkt address: 3c0
cpkt address: 47040
cpkt address: 4bac0
cpkt address: 46540
cpkt address: 2b0c0
cpkt address: 5b740
cpkt address: 465c0
cpkt address: 3e580
cpkt address: 4d700
cpkt address: 3b780
cpkt address: 400
cpkt address: 42000
cpkt address: 3e780
cpkt address: 45340
cpkt address: 48f40
cpkt address: 44e40
cpkt address: 42900
cpkt address: 46cc0
cpkt address: 5d00
cpkt address: 471c0
cpkt address: 38f40
cpkt address: 2a940
cpkt address: 41640
cpkt address: 3b240
cpkt address: 4fa80
cpkt address: 5cf40
cpkt address: 48440
cpkt address: 43840
cpkt address: 2ac40
cpkt address: 2a980
cpkt address: 3e980
cpkt address: 3b7c0
cpkt address: 48780
cpkt address: 52c40
cpkt address: 2aa40
cpkt address: 4a9c0
cpkt address: 41d00
cpkt address: 43f00
cpkt address: 47480
cpkt address: 45f40
cpkt address: 2aa00
cpkt address: 45680
cpkt address: 574c0
cpkt address: 48000
cpkt address: 38480
cpkt address: 42f80
cpkt address: 43240
cpkt address: 46c00
cpkt address: 43000
cpkt address: 475c0
cpkt address: 47900
cpkt address: 474c0
cpkt address: 46d40
cpkt address: 2c8c0
cpkt address: 38900
cpkt address: 4c8c0
cpkt address: 4b500
cpkt address: 384c0
cpkt address: 29f80
cpkt address: 4af40
cpkt address: 48f80
cpkt address: 4f400
cpkt address: 45940
cpkt address: 41440
cpkt address: 2b440
cpkt address: 4ff00
cpkt address: 4ae00
cpkt address: 40240
cpkt address: 39900
cpkt address: 4f440
cpkt address: 456c0
cpkt address: 5df00
cpkt address: 3b300
cpkt address: 48500
cpkt address: 4bb40
cpkt address: 1ec0
cpkt address: 38540
cpkt address: 29ec0
cpkt address: 43a80
cpkt address: 1ec0
cpkt address: 41b80
cpkt address: 5dec0
cpkt address: 47fc0
cpkt address: 534c0
cpkt address: 520c0
cpkt address: 29cc0
cpkt address: 48040
cpkt address: 58540
cpkt address: 4edc0
cpkt address: 5ddc0
cpkt address: 21d40
cpkt address: 29d80
cpkt address: 1e80
cpkt address: 4f240
cpkt address: 43280
cpkt address: 1e00
cpkt address: 55d40
cpkt address: 3eac0
cpkt address: 36080
cpkt address: 39e80
cpkt address: 375c0
cpkt address: 501c0
cpkt address: 200
cpkt address: 4eb00
cpkt address: 48580
cpkt address: 4fa00
cpkt address: 46200
cpkt address: 41940
cpkt address: 3b940
cpkt address: 40ac0
cpkt address: 4f5c0
cpkt address: 46ec0
cpkt address: 4c900
cpkt address: 2c940
cpkt address: 58940
cpkt address: 50280
cpkt address: 47540
cpkt address: 4a880
cpkt address: 3e600
cpkt address: 3b540
cpkt address: 58180
cpkt address: 4f540
cpkt address: 39cc0
cpkt address: 585c0
cpkt address: 2ca80
cpkt address: 536c0
cpkt address: 52880
cpkt address: 41740
cpkt address: 5ea00
cpkt address: 3aa40
cpkt address: 4dec0
cpkt address: 53500
cpkt address: 4f700
cpkt address: 3a880
cpkt address: 3ad80
cpkt address: 48a80
cpkt address: 3a9c0
cpkt address: 45640
cpkt address: 5e780
cpkt address: 2b400
cpkt address: 45bc0
cpkt address: 3cf80
cpkt address: 3b400
cpkt address: 3b480
cpkt address: 47f40
cpkt address: 48600
cpkt address: 2b500
cpkt address: 1fe80
cpkt address: 206c0
cpkt address: 1fec0
cpkt address: 4f000
cpkt address: 478c0
cpkt address: 46640
cpkt address: 2b6c0
cpkt address: fec0
cpkt address: 3b580
cpkt address: 4c640
cpkt address: bec0
cpkt address: 4ac80
cpkt address: 4ee80
cpkt address: 41280
cpkt address: 21d40
cpkt address: 37fc0
cpkt address: 39d40
cpkt address: 1b580
cpkt address: 48bc0
cpkt address: b500
cpkt address: 38680
cpkt address: 56000
cpkt address: 46040
cpkt address: 4c6c0
cpkt address: 48700
cpkt address: 38740
cpkt address: 38780
cpkt address: 1b540
cpkt address: 3a80
cpkt address: 59d40
cpkt address: 39d00
cpkt address: 1fac0
cpkt address: 39700
cpkt address: 59d80
cpkt address: 45dc0
cpkt address: 3b200
cpkt address: 4ba80
cpkt address: 539c0
cpkt address: 4f980
cpkt address: 37700
cpkt address: 3ba00
cpkt address: 9d40
cpkt address: 11d80
cpkt address: 1eb00
cpkt address: 5b240
cpkt address: 7200
cpkt address: 135c0
cpkt address: 38c00
cpkt address: 46f40
cpkt address: 3a8c0
cpkt address: 46f80
cpkt address: 37500
cpkt address: 224c0
cpkt address: 36c0
cpkt address: 3b4c0
cpkt address: 49e00
cpkt address: 63240
cpkt address: 39f00
cpkt address: 36000
cpkt address: 3b3c0
cpkt address: 29f40
cpkt address: 32c0
cpkt address: 13600
cpkt address: 3b00
cpkt address: 3380
cpkt address: 4b300
cpkt address: 45f80
cpkt address: 38400
cpkt address: 40300
cpkt address: 3540
cpkt address: 3e000
cpkt address: 2cc00
cpkt address: 4f2c0
cpkt address: 29fc0
cpkt address: 58480
cpkt address: 5fac0
cpkt address: 483c0
cpkt address: 61700
cpkt address: 2b440
cpkt address: 39a40
cpkt address: 41a80
cpkt address: 38ec0
cpkt address: 368c0
cpkt address: 14ec0
cpkt address: 2b4c0
cpkt address: 3e040
cpkt address: 14f40
cpkt address: 484c0
cpkt address: 50500
cpkt address: 48540
cpkt address: 3b440
cpkt address: 3b5c0
cpkt address: 38c00
cpkt address: 4f580
cpkt address: 4cc40
cpkt address: 38700
cpkt address: 3a8c0
cpkt address: 4d00
cpkt address: 37c0
cpkt address: 58680
cpkt address: 506c0
cpkt address: 4f4c0
cpkt address: 5aac0
cpkt address: 3ac40
cpkt address: 45f00
cpkt address: 1f40
cpkt address: 4df80
cpkt address: 42a80
cpkt address: 3ab80
cpkt address: 2b9c0
cpkt address: 2b480
cpkt address: 3adc0
cpkt address: 46840
cpkt address: 43780
cpkt address: 2cc00
cpkt address: 4a800
cpkt address: 4f7c0
cpkt address: 39fc0
cpkt address: 4f400
cpkt address: 29ec0
cpkt address: 66b00
cpkt address: 364c0
cpkt address: 50540
cpkt address: be80
cpkt address: 368c0
cpkt address: 4b680
cpkt address: 55380
cpkt address: 36300
cpkt address: 4e300
cpkt address: 36000
cpkt address: 2b5c0
cpkt address: 4b6c0
cpkt address: 2a000
cpkt address: 36500
cpkt address: fac0
cpkt address: 4d500
cpkt address: 2b300
cpkt address: 2000
cpkt address: 2b4c0
cpkt address: 1fac0
cpkt address: 34c0
cpkt address: 22500
cpkt address: 3b040
cpkt address: 3640
cpkt address: 3b540
cpkt address: 500c0
cpkt address: 674c0
cpkt address: 4fa40
cpkt address: 4f440
cpkt address: 3b740
cpkt address: 59b80
cpkt address: 41840
cpkt address: 46d80
cpkt address: 5dec0
cpkt address: 46e00
cpkt address: 38c00
cpkt address: f900
cpkt address: 4f080
cpkt address: 44cc0
cpkt address: 38d00
cpkt address: 4cd40
cpkt address: 38d80
cpkt address: 20c00
cpkt address: 4cdc0
cpkt address: 4ce00
cpkt address: bc40
cpkt address: 36040
cpkt address: 4b280
cpkt address: 1b7c0
cpkt address: 224c0
cpkt address: b800
cpkt address: b640
cpkt address: 4c200
cpkt address: b680
cpkt address: f700
cpkt address: 3a080
cpkt address: 44bc0
cpkt address: 106c0
cpkt address: 56080
cpkt address: 20700
cpkt address: 3b300
cpkt address: 32c0
cpkt address: 1f00
cpkt address: 20640
cpkt address: 39700
cpkt address: 39c0
cpkt address: 1c680
cpkt address: 1e480
cpkt address: 58f80
cpkt address: 38fc0
cpkt address: 1e4c0
cpkt address: 1e500
cpkt address: 1e3c0
cpkt address: 54e00
cpkt address: 4f3c0
cpkt address: 2cdc0
cpkt address: 7140
cpkt address: 2b400
cpkt address: 379c0
cpkt address: 58ec0
cpkt address: f6c0
cpkt address: 46100
cpkt address: 48dc0
cpkt address: 68600
cpkt address: 68640
cpkt address: 1c580
cpkt address: 36000
cpkt address: 44c80
cpkt address: ee00
cpkt address: 1ea00
cpkt address: 29f00
cpkt address: 6a80
cpkt address: 67300
cpkt address: 1eac0
cpkt address: 1eb00
cpkt address: 37400
cpkt address: 12ac0
cpkt address: eb00
cpkt address: 52500
cpkt address: 2000
cpkt address: 2040
cpkt address: 2cc00
cpkt address: 2b980
cpkt address: 2cb80
cpkt address: 39400
cpkt address: 3e4c0
cpkt address: f500
cpkt address: f540
cpkt address: 44b80
cpkt address: 1eb40
cpkt address: 2a000
cpkt address: 38c00
cpkt address: 20740
cpkt address: 1c840
cpkt address: 1c780
cpkt address: 1c080
cpkt address: 140c0
cpkt address: 4b740
cpkt address: 51040
cpkt address: 525c0
cpkt address: 14100
cpkt address: 47c40
cpkt address: c140
cpkt address: 3440
cpkt address: 682c0
cpkt address: 87c0
cpkt address: 1c900
cpkt address: 8940
cpkt address: 68540
cpkt address: 45e00
cpkt address: 106c0
cpkt address: 1c6c0
cpkt address: 68680
cpkt address: 11240
cpkt address: d1c0
cpkt address: 5200
cpkt address: 1c800
cpkt address: 2ca00
cpkt address: 2c9c0
cpkt address: 1c700
cpkt address: 68780
cpkt address: 1c5c0
cpkt address: 36040
cpkt address: 38340
cpkt address: eac0
cpkt address: 3ca00
cpkt address: 38840
cpkt address: 48800
cpkt address: 2a040
cpkt address: 48c00
cpkt address: 5d400
cpkt address: 2b180
cpkt address: 3b900
cpkt address: 487c0
cpkt address: 50580
cpkt address: 505c0
cpkt address: 56e80
cpkt address: 47100
cpkt address: 151c0
cpkt address: 16780
cpkt address: 16740
cpkt address: 3a200
cpkt address: 1e80
cpkt address: 2cfc0
cpkt address: 1b3c0
cpkt address: 1f540
cpkt address: 13580
cpkt address: 1ec0
cpkt address: 8780
cpkt address: 780
cpkt address: 687c0
cpkt address: 2b500
cpkt address: 8800
cpkt address: 4ce40
cpkt address: 1c7c0
cpkt address: 2c980
cpkt address: f480
cpkt address: 1f5c0
cpkt address: 1f880
cpkt address: 1fd80
cpkt address: 5cfc0
cpkt address: f600
cpkt address: b6c0
cpkt address: 1f500
cpkt address: db00
cpkt address: db40
cpkt address: db80
cpkt address: 13680
cpkt address: be40
cpkt address: 1ff80
cpkt address: 1fe80
cpkt address: 70780
cpkt address: 8740
cpkt address: 29e80
cpkt address: 69ec0
cpkt address: 980
cpkt address: 11b00
cpkt address: 71b40
cpkt address: 43180
cpkt address: 6fd80
cpkt address: fe80
cpkt address: 45a40
cpkt address: 37680
cpkt address: 440
cpkt address: 418c0
cpkt address: 4da40
cpkt address: 36c0
cpkt address: 9b80
cpkt address: 62e80
cpkt address: f3c0
cpkt address: 6f400
cpkt address: 6f440
cpkt address: 4f480
cpkt address: 48740
cpkt address: 6f480
cpkt address: 1f4c0
cpkt address: 6f580
cpkt address: b880
cpkt address: f8c0
cpkt address: 135c0
cpkt address: f5c0
cpkt address: 29bc0
cpkt address: 1f600
cpkt address: 136c0
cpkt address: b700
cpkt address: f640
cpkt address: 6f680
cpkt address: 13800
cpkt address: 1f840
cpkt address: 13500
cpkt address: f400
cpkt address: 73580
cpkt address: 48980
cpkt address: 1f480
cpkt address: 1ec0
cpkt address: 1fd80
cpkt address: 5b40
cpkt address: 73680
cpkt address: 6f580
cpkt address: f680
cpkt address: f580
cpkt address: 73640
cpkt address: 707c0
cpkt address: 69ec0
cpkt address: 502c0
cpkt address: 6fd80
cpkt address: 41800
cpkt address: 4df40
cpkt address: 373c0
cpkt address: 58600
cpkt address: bdc0
cpkt address: 364c0
cpkt address: fe00
cpkt address: 42e80
cpkt address: d800
cpkt address: d840
cpkt address: 9880
cpkt address: 2b700
cpkt address: a180
cpkt address: 50740
cpkt address: 2b6c0
cpkt address: 3600
cpkt address: 121c0
cpkt address: 4c780
cpkt address: 38640
cpkt address: 137c0
cpkt address: f800
cpkt address: b840
cpkt address: 449c0
cpkt address: 6f880
cpkt address: 16280
cpkt address: 37700
cpkt address: 4f680
cpkt address: 41780
cpkt address: 16300
cpkt address: 1e240
cpkt address: 3c700
cpkt address: c1c0
cpkt address: 4b640
cpkt address: 6c280
cpkt address: 586c0
cpkt address: 54600
cpkt address: 11740
cpkt address: 11780
cpkt address: 9900
cpkt address: 66540
cpkt address: 16580
cpkt address: 2c740
cpkt address: 5c5c0
cpkt address: 6b180
cpkt address: 540
cpkt address: 11d00
cpkt address: 5f1c0
cpkt address: 5f200
cpkt address: 1b240
cpkt address: 5c580
cpkt address: 8880
cpkt address: 16180
cpkt address: 38500
cpkt address: 2ab00
cpkt address: 762c0
cpkt address: 73880
cpkt address: 4e140
cpkt address: 738c0
cpkt address: f4c0
cpkt address: 6f600
cpkt address: 504c0
cpkt address: 7e2c0
cpkt address: 50480
cpkt address: 4c440
cpkt address: 76300
cpkt address: 5e940
cpkt address: 8840
cpkt address: 2040
cpkt address: 647c0
cpkt address: 36000
cpkt address: 200
cpkt address: 54240
cpkt address: 4c280
cpkt address: 2c0
cpkt address: 50300
cpkt address: 50340
cpkt address: 380
cpkt address: 503c0
cpkt address: 5a0c0
cpkt address: 2cc80
cpkt address: 3c6c0
cpkt address: 3e000
cpkt address: 581c0
cpkt address: 2ce00
cpkt address: 2cd00
cpkt address: 2a9c0
cpkt address: 50700
cpkt address: 46380
cpkt address: 4c180
cpkt address: 3c800
cpkt address: 48100
cpkt address: 50140
cpkt address: 580c0
cpkt address: 58080
cpkt address: 4c040
cpkt address: 2cfc0
cpkt address: 50000
cpkt address: 38f80
cpkt address: 6f5c0
cpkt address: 376c0
cpkt address: 5a880
cpkt address: 7f600
cpkt address: 1e80
cpkt address: 2b2c0
cpkt address: 2cf40
cpkt address: 47640
cpkt address: 3c00
cpkt address: 3c40
cpkt address: 3c80
cpkt address: 2c840
cpkt address: 3a9c0
cpkt address: 1fc00
cpkt address: fc40
cpkt address: 3e040
cpkt address: 3480
cpkt address: fcc0
cpkt address: 3a40
cpkt address: 3700
cpkt address: 46280
cpkt address: 16340
cpkt address: 16380
cpkt address: 59ac0
cpkt address: 1e400
cpkt address: 163c0
cpkt address: 38e40
cpkt address: 38e80
cpkt address: 48ec0
cpkt address: 58f00
cpkt address: 80f40
cpkt address: 2cf80
cpkt address: 47ac0
cpkt address: 38fc0
cpkt address: 3b000
cpkt address: 4f040
cpkt address: 4b080
cpkt address: 4f0c0
cpkt address: 41b00
cpkt address: 3b100
cpkt address: 3bb00
cpkt address: 43140
cpkt address: 4f180
cpkt address: 3b1c0
cpkt address: 63200
cpkt address: 2b240
cpkt address: 3b280
cpkt address: 47b40
cpkt address: 672c0
cpkt address: 2b300
cpkt address: 3340
cpkt address: 2b380
cpkt address: 2b3c0
cpkt address: 2b400
cpkt address: 67440
cpkt address: 37480
cpkt address: 34c0
cpkt address: 63500
cpkt address: 63500
cpkt address: 5b540
cpkt address: 37580
cpkt address: 43bc0
cpkt address: 4b5c0
cpkt address: 4f600
cpkt address: 37640
cpkt address: 37680
cpkt address: 45b80
cpkt address: 2b6c0
cpkt address: 67700
cpkt address: 43c00
cpkt address: 67740
cpkt address: 3780
cpkt address: 37c0
cpkt address: 3b800
cpkt address: 47840
cpkt address: 4f880
cpkt address: 37c40
cpkt address: 4f8c0
cpkt address: 4b900
cpkt address: 4f940
cpkt address: 53980
cpkt address: 3f9c0
cpkt address: 2ba00
cpkt address: 47c80
cpkt address: 45bc0
cpkt address: 3ba40
cpkt address: 2ba80
cpkt address: 4fac0
cpkt address: 4fb00
cpkt address: 3bb40
cpkt address: 4fb80
cpkt address: 4bcc0
cpkt address: 4fbc0
cpkt address: 4fc00
cpkt address: 43c40
cpkt address: 3fc80
cpkt address: 47cc0
cpkt address: 47d00
cpkt address: 2bd00
cpkt address: 4fd40
cpkt address: 4fd80
cpkt address: 4bdc0
cpkt address: 47e00
cpkt address: 4be40
cpkt address: 4be80
cpkt address: 57d40
cpkt address: 4fec0
cpkt address: 47f00
cpkt address: 3bf80
cpkt address: 4bfc0
cpkt address: 2000
cpkt address: 57d80
cpkt address: 2a040
cpkt address: 3e080
cpkt address: 360c0
cpkt address: 36100
cpkt address: 46140
cpkt address: 4a180
cpkt address: 461c0
cpkt address: 42200
cpkt address: 4e240
cpkt address: 36280
cpkt address: 55c80
cpkt address: 362c0
cpkt address: 4a300
cpkt address: 3fe00
cpkt address: 36340
cpkt address: 36380
cpkt address: 423c0
cpkt address: 5e400
cpkt address: 36440
cpkt address: 4e480
cpkt address: 57e40
cpkt address: 4e4c0
cpkt address: 29cc0
cpkt address: 36500
cpkt address: 5e540
cpkt address: 5e580
cpkt address: 3e5c0
cpkt address: 3a600
cpkt address: 4a640
cpkt address: 46740
cpkt address: 3a780
cpkt address: 47ec0
cpkt address: 4a7c0
cpkt address: 45d00
cpkt address: 36840
cpkt address: 3a880
cpkt address: 3a8c0
cpkt address: 5e900
cpkt address: 4bf00
cpkt address: 3e940
cpkt address: 2a980
cpkt address: 2a9c0
cpkt address: 2aa00
cpkt address: 46a80
cpkt address: 57f40
cpkt address: 46ac0
cpkt address: 3eb00
cpkt address: 2ab40
cpkt address: 2ab80
cpkt address: 3abc0
cpkt address: 5ec00
cpkt address: 47f80
cpkt address: 21d40
cpkt address: 2ac40
cpkt address: 3ac80
cpkt address: 2acc0
cpkt address: 42d00
cpkt address: 5ed40
cpkt address: 2ad80
cpkt address: 5edc0
cpkt address: 2ae00
cpkt address: 42e40
cpkt address: 3ae80
cpkt address: 5aec0
cpkt address: 3af00
cpkt address: 57000
cpkt address: 21d80
cpkt address: 5ef40
cpkt address: 2af80
cpkt address: 2afc0
cpkt address: 3d000
cpkt address: 41040
cpkt address: 55080
cpkt address: 57040
cpkt address: 410c0
cpkt address: 45140
cpkt address: 4d200
cpkt address: 57080
cpkt address: 5d240
cpkt address: 592c0
cpkt address: 49dc0
cpkt address: 39300
cpkt address: 41340
cpkt address: 39380
cpkt address: 570c0
cpkt address: 413c0
cpkt address: 39400
cpkt address: 39440
cpkt address: 45480
cpkt address: 454c0
cpkt address: 39500
cpkt address: 57100
cpkt address: 39540
cpkt address: 45580
cpkt address: 395c0
cpkt address: 45600
cpkt address: 1e00
cpkt address: 4d640
cpkt address: 55680
cpkt address: 2b140
cpkt address: 4d6c0
cpkt address: 41700
cpkt address: 45740
cpkt address: 39780
cpkt address: 397c0
cpkt address: 45800
cpkt address: 2b180
cpkt address: 59840
cpkt address: 45880
cpkt address: 518c0
cpkt address: 45900
cpkt address: 4d940
cpkt address: 41980
cpkt address: 2b1c0
cpkt address: 399c0
cpkt address: 39a00
cpkt address: 39a40
cpkt address: 39a80
cpkt address: 39ac0
cpkt address: 39b40
cpkt address: 4dbc0
cpkt address: 41c00
cpkt address: 69e80
cpkt address: 29c40
cpkt address: 29c80
cpkt address: 39cc0
cpkt address: 39d00
cpkt address: 39d40
cpkt address: 39d80
cpkt address: 39dc0
cpkt address: 29e00
cpkt address: 57280
cpkt address: 45e40
cpkt address: 39e80
cpkt address: 29e80
cpkt address: 29ec0
cpkt address: 49ec0
cpkt address: 69f00
cpkt address: 29f40
cpkt address: 1f80
cpkt address: 572c0
cpkt address: 1fc0
cpkt address: 2c000
cpkt address: 2c040
cpkt address: 44080
cpkt address: 380c0
cpkt address: 2c100
cpkt address: 57300
cpkt address: 2c140
cpkt address: 50180
cpkt address: 2c1c0
cpkt address: 49f00
cpkt address: 2c200
cpkt address: 2c240
cpkt address: 280
cpkt address: 4f340
cpkt address: 2c2c0
cpkt address: 300
cpkt address: 2c340
cpkt address: 50380
cpkt address: 3c0
cpkt address: 400
cpkt address: 3b380
cpkt address: 50440
cpkt address: 2c480
cpkt address: 4c0
cpkt address: 2c500
cpkt address: 58540
cpkt address: 2c580
cpkt address: 2c5c0
cpkt address: 50600
cpkt address: 50640
cpkt address: 3c680
cpkt address: 386c0
cpkt address: 38700
cpkt address: 57400
cpkt address: 74740
cpkt address: 2c780
cpkt address: 29f80
cpkt address: 387c0
cpkt address: 58800
cpkt address: 48840
cpkt address: 2c880
cpkt address: 2b440
cpkt address: 448c0
cpkt address: 2c900
cpkt address: 38940
cpkt address: 2c980
cpkt address: 9c0
cpkt address: 48a00
cpkt address: 57480
cpkt address: 44a40
cpkt address: 2ca80
cpkt address: 2cac0
cpkt address: 4cb00
cpkt address: 48b40
cpkt address: 2cb80
cpkt address: 2b4c0
cpkt address: 38bc0
cpkt address: 2cc00
cpkt address: 2cc40
cpkt address: 29fc0
cpkt address: 38c80
cpkt address: 2ccc0
cpkt address: 38d00
cpkt address: 57500
cpkt address: 48d40
cpkt address: 38dc0
cpkt address: 38e00
cpkt address: 2ce40
cpkt address: 4ce80
cpkt address: b540
cpkt address: 57540
cpkt address: 38ec0
cpkt address: 38f00
cpkt address: 38f40
cpkt address: 47000
cpkt address: 4cf80
cpkt address: 4cfc0
cpkt address: 4f000
cpkt address: 57580
cpkt address: 5b000
cpkt address: 4f000
cpkt address: 43040
cpkt address: 4b000
cpkt address: 4b080
cpkt address: 470c0
cpkt address: 43100
cpkt address: 4b140
cpkt address: 57180
cpkt address: 35c0
cpkt address: 4b1c0
cpkt address: 57200
cpkt address: 57240
cpkt address: 4b040
cpkt address: 2b280
cpkt address: 32c0
cpkt address: 4b300
cpkt address: 3b600
cpkt address: 37600
cpkt address: 57340
cpkt address: 57380
cpkt address: 573c0
cpkt address: 3400
cpkt address: 57440
cpkt address: 4b480
cpkt address: 3640
cpkt address: 574c0
cpkt address: 53500
cpkt address: 4b500
cpkt address: 2b540
cpkt address: 5b080
cpkt address: 3b580
cpkt address: 4b580
cpkt address: 435c0
cpkt address: 575c0
cpkt address: 13600
cpkt address: 4b600
cpkt address: 3680
cpkt address: 4b640
cpkt address: 57680
cpkt address: b6c0
cpkt address: 3b6c0
cpkt address: 57700
cpkt address: 3740
cpkt address: 57780
cpkt address: 5b6c0
cpkt address: 3f7c0
cpkt address: 3800
cpkt address: 57840
cpkt address: 57880
cpkt address: 4f900
cpkt address: 2b700
cpkt address: 57940
cpkt address: 57980
cpkt address: 579c0
cpkt address: 5b0c0
cpkt address: 57a00
cpkt address: 57a40
cpkt address: 57a80
cpkt address: 57740
cpkt address: 57b00
cpkt address: 4fb40
cpkt address: 43b80
cpkt address: 4bbc0
cpkt address: 57c00
cpkt address: 5b780
cpkt address: 57c40
cpkt address: 4fc80
cpkt address: 4fcc0
cpkt address: 57d00
cpkt address: 4b100
cpkt address: 4fd40
cpkt address: 3bd80
cpkt address: 5b7c0
cpkt address: 57dc0
cpkt address: 57e00
cpkt address: 53e40
cpkt address: 57e80
cpkt address: 57ec0
cpkt address: 4ff00
cpkt address: 43800
cpkt address: 5b800
cpkt address: 4bf40
cpkt address: 4ff80
cpkt address: 4ffc0
cpkt address: 4c000
cpkt address: 5b140
cpkt address: 54040
cpkt address: 54080
cpkt address: 5b840
cpkt address: 2c0c0
cpkt address: 54100
cpkt address: 44140
cpkt address: 54180
cpkt address: 541c0
cpkt address: 50200
cpkt address: 47880
cpkt address: 47880
cpkt address: 50240
cpkt address: 54280
cpkt address: 542c0
cpkt address: 2c300
cpkt address: 340
cpkt address: 2c380
cpkt address: 578c0
cpkt address: 2c3c0
cpkt address: 50400
cpkt address: 2c440
cpkt address: 4b180
cpkt address: 480
cpkt address: 544c0
cpkt address: 54500
cpkt address: 5b900
cpkt address: 54540
cpkt address: 54580
cpkt address: 4c5c0
cpkt address: 54600
cpkt address: 54640
cpkt address: 50680
cpkt address: 43940
cpkt address: 546c0
cpkt address: 3c700
cpkt address: 571c0
cpkt address: 38740
cpkt address: 4c780
cpkt address: 54780
cpkt address: 2c7c0
cpkt address: 2c800
cpkt address: 5b980
cpkt address: 58840
cpkt address: 54880
cpkt address: 548c0
cpkt address: 54900
cpkt address: 54940
cpkt address: 980
cpkt address: 5b9c0
cpkt address: 549c0
cpkt address: 4b200
cpkt address: 54a00
cpkt address: 54a40
cpkt address: 58a80
cpkt address: 54ac0
cpkt address: 4b00
cpkt address: 2cb00
cpkt address: 5ba00
cpkt address: 2cb40
cpkt address: 4cb80
cpkt address: 2cbc0
cpkt address: 38c00
cpkt address: 54c40
cpkt address: 4cc80
cpkt address: 5ba40
cpkt address: 48cc0
cpkt address: 4cd00
cpkt address: 5b240
cpkt address: 4cd40
cpkt address: 54d40
cpkt address: 2cd80
cpkt address: 4d80
cpkt address: 2cdc0
cpkt address: 2ce00
Setting Dirty, Packet address: 2ce00
cpkt address: 54e00
cpkt address: 4fa80
cpkt address: 44e40
cpkt address: 4ce40
cpkt address: 48e80
cpkt address: 54ec0
cpkt address: 54f00
cpkt address: 4cf40
cpkt address: 80f80
cpkt address: 57ac0
cpkt address: 80fc0
cpkt address: 41000
cpkt address: 49040
cpkt address: 5b280
cpkt address: 51080
cpkt address: 490c0
cpkt address: 41100
cpkt address: 5bb00
cpkt address: 35140
cpkt address: 49180
cpkt address: 491c0
cpkt address: 49200
cpkt address: 49240
cpkt address: 49280
cpkt address: 57b40
cpkt address: 392c0
cpkt address: 49300
cpkt address: 39340
cpkt address: 49380
cpkt address: 393c0
cpkt address: 49400
cpkt address: 5bb80
cpkt address: 4b2c0
cpkt address: 59440
cpkt address: 39480
cpkt address: 394c0
cpkt address: 49500
cpkt address: 45540
cpkt address: 39580
cpkt address: 5bbc0
cpkt address: 455c0
cpkt address: 49600
cpkt address: 49640
cpkt address: 49680
cpkt address: 496c0
cpkt address: 49700
cpkt address: 47c00
cpkt address: 5b300
cpkt address: 49740
cpkt address: 49780
cpkt address: 497c0
cpkt address: 49800
cpkt address: 39840
cpkt address: 41880
cpkt address: 4fc40
cpkt address: 498c0
cpkt address: 59900
cpkt address: 49940
cpkt address: 49980
cpkt address: 499c0
cpkt address: 45a00
cpkt address: 57c80
cpkt address: 59a40
cpkt address: 49a80
cpkt address: 41ac0
cpkt address: 4b340
cpkt address: 39b00
cpkt address: 45b40
cpkt address: 49b80
cpkt address: 57cc0
cpkt address: 49bc0
cpkt address: 49c00
cpkt address: 39c40
cpkt address: 49c80
cpkt address: 49cc0
cpkt address: 49d00
cpkt address: 4fd00
cpkt address: 29d40
cpkt address: 49d80
cpkt address: 49dc0
cpkt address: 49e00
cpkt address: 49e40
cpkt address: 49e80
cpkt address: 5bd40
cpkt address: 4b380
cpkt address: 39ec0
cpkt address: 39f00
cpkt address: 39f40
cpkt address: 39f80
cpkt address: 39fc0
cpkt address: 55000
cpkt address: 5bd80
cpkt address: 69040
cpkt address: 55080
cpkt address: 5d0c0
cpkt address: 49100
cpkt address: 55140
cpkt address: 55180
cpkt address: 4fdc0
cpkt address: 411c0
cpkt address: 55200
cpkt address: 55240
cpkt address: 5b3c0
cpkt address: 55280
cpkt address: 552c0
cpkt address: 55300
cpkt address: 4fe00
cpkt address: 55340
cpkt address: 55380
cpkt address: 493c0
cpkt address: 55400
cpkt address: 49440
cpkt address: 49480
cpkt address: 4fe40
cpkt address: 494c0
cpkt address: 59500
cpkt address: 55540
cpkt address: 5b400
cpkt address: 49580
cpkt address: 555c0
cpkt address: 55600
cpkt address: 5be80
cpkt address: 55640
cpkt address: 55680
cpkt address: 556c0
cpkt address: 55700
cpkt address: 55740
cpkt address: 55780
cpkt address: 4fec0
cpkt address: 557c0
cpkt address: 39800
cpkt address: 55840
cpkt address: 55880
cpkt address: 398c0
cpkt address: 49900
cpkt address: 5bf00
cpkt address: 4b440
cpkt address: 55940
cpkt address: 39980
cpkt address: 459c0
cpkt address: 55a00
cpkt address: 49a40
cpkt address: 4ff40
cpkt address: 55ac0
cpkt address: 49b00
cpkt address: 49b40
cpkt address: 5b480
cpkt address: 55b80
cpkt address: 39bc0
cpkt address: 39c00
cpkt address: 5bf80
cpkt address: 49c40
cpkt address: 55c80
cpkt address: 55cc0
cpkt address: 55d00
cpkt address: 49d40
cpkt address: 29d80
cpkt address: 57fc0
cpkt address: 55dc0
cpkt address: 55e00
cpkt address: 55e40
cpkt address: 39e80
cpkt address: 1ec0
cpkt address: 5b4c0
cpkt address: 55f00
cpkt address: 5c000
cpkt address: 49f40
cpkt address: 55f80
cpkt address: 55fc0
cpkt address: 56000
cpkt address: 56040
cpkt address: 56080
cpkt address: 50040
cpkt address: 4a0c0
cpkt address: 42100
cpkt address: 3e140
cpkt address: 56180
cpkt address: 3500
cpkt address: 561c0
cpkt address: 56200
cpkt address: 5c080
cpkt address: 56240
cpkt address: 5e280
cpkt address: 562c0
cpkt address: 36300
cpkt address: 5a300
cpkt address: 36300
cpkt address: 3e340
cpkt address: 56380
cpkt address: 5c0c0
cpkt address: 56300
cpkt address: 563c0
cpkt address: 56400
cpkt address: 56440
cpkt address: 5b540
cpkt address: 36480
cpkt address: 224c0
cpkt address: 56500
cpkt address: 5c100
cpkt address: 56540
cpkt address: 56580
cpkt address: 565c0
cpkt address: 46600
cpkt address: 3e640
cpkt address: 56680
cpkt address: 54140
cpkt address: 566c0
cpkt address: 36700
cpkt address: 36740
cpkt address: 56780
cpkt address: 567c0
cpkt address: 36800
cpkt address: 2c180
cpkt address: 56840
cpkt address: 56880
cpkt address: 4a8c0
cpkt address: 5b580
cpkt address: 46900
cpkt address: 2a940
cpkt address: 5e980
cpkt address: 5e9c0
cpkt address: 56a40
cpkt address: 2aa80
cpkt address: 56ac0
cpkt address: 5b5c0
cpkt address: 5c200
cpkt address: 56b40
cpkt address: 46b80
cpkt address: 56bc0
cpkt address: 56c00
cpkt address: 56c40
cpkt address: 2ac80
cpkt address: 54240
cpkt address: 4acc0
cpkt address: 2ad00
cpkt address: 4ed40
cpkt address: 3ad80
cpkt address: 2adc0
cpkt address: 3ae00
cpkt address: 5c280
cpkt address: 5b600
cpkt address: 56e40
cpkt address: 56e80
cpkt address: 42ec0
cpkt address: 56f00
cpkt address: 56f40
cpkt address: 3af80
cpkt address: 3afc0
cpkt address: 4d000
cpkt address: 55040
cpkt address: 4d080
cpkt address: 550c0
cpkt address: 55100
cpkt address: 54300
cpkt address: 4d140
cpkt address: 41180
cpkt address: 551c0
cpkt address: 5b640
cpkt address: 4d200
cpkt address: 35240
cpkt address: 59280
cpkt address: 54340
cpkt address: 492c0
cpkt address: 4d300
cpkt address: 4d340
cpkt address: 41380
cpkt address: 553c0
cpkt address: 45400
cpkt address: 54380
cpkt address: 4d440
cpkt address: 55480
cpkt address: 4d4c0
cpkt address: 4d500
cpkt address: 49540
cpkt address: 4d580
cpkt address: 5c3c0
cpkt address: 4d5c0
cpkt address: 39600
cpkt address: 39640
cpkt address: 39680
cpkt address: 5b680
cpkt address: 4d6c0
cpkt address: 4d700
cpkt address: 5c400
cpkt address: 39740
cpkt address: 69780
cpkt address: 4d7c0
cpkt address: 55800
cpkt address: 4d840
cpkt address: 49880
cpkt address: 54440
cpkt address: 558c0
cpkt address: 55900
cpkt address: 4d940
cpkt address: 4d980
cpkt address: 559c0
cpkt address: 49a00
cpkt address: 54480
cpkt address: 4da40
cpkt address: 55a80
cpkt address: 49ac0
cpkt address: 576c0
cpkt address: 55b00
cpkt address: 4db40
cpkt address: 39b80
cpkt address: 2c4c0
cpkt address: 4dbc0
cpkt address: 55c00
cpkt address: 55c40
cpkt address: 39c80
cpkt address: 59cc0
cpkt address: 4dd00
cpkt address: 500
cpkt address: 4dd40
cpkt address: 4dd80
cpkt address: 4ddc0
cpkt address: 4b700
cpkt address: 4de00
cpkt address: 39e40
cpkt address: 4de80
cpkt address: 2c540
cpkt address: 4dec0
cpkt address: 4df00
cpkt address: 55f40
cpkt address: 4df80
cpkt address: 4dfc0
cpkt address: 36000
cpkt address: 52000
cpkt address: 36000
cpkt address: 5a000
cpkt address: 36040
cpkt address: 5a080
cpkt address: 5a0c0
cpkt address: 5a100
cpkt address: 5a140
cpkt address: 5c5c0
cpkt address: 361c0
cpkt address: 5b740
cpkt address: 3e200
cpkt address: 42240
cpkt address: 5a280
cpkt address: 5e2c0
cpkt address: 5a300
cpkt address: 2c600
cpkt address: 56340
cpkt address: 3e380
cpkt address: 5a3c0
cpkt address: 36400
cpkt address: 4e440
cpkt address: 56480
cpkt address: 2c640
cpkt address: 564c0
cpkt address: 22500
cpkt address: 5a540
cpkt address: 5a580
cpkt address: 4a5c0
cpkt address: 56600
cpkt address: 54680
cpkt address: 5a640
cpkt address: 42680
cpkt address: 466c0
cpkt address: 56700
cpkt address: 56740
cpkt address: 4a780
cpkt address: 506c0
cpkt address: 367c0
cpkt address: 5a800
cpkt address: 5a840
cpkt address: 36880
cpkt address: 568c0
cpkt address: 5a900
cpkt address: 5c700
cpkt address: 577c0
cpkt address: 56940
cpkt address: 56980
cpkt address: 569c0
cpkt address: 56a00
cpkt address: 5aa40
cpkt address: 56a80
cpkt address: 3c740
Setting Dirty, Packet address: 3c740
cpkt address: 5c740
cpkt address: 5aac0
cpkt address: 56b00
cpkt address: 3ab40
cpkt address: 5ab80
cpkt address: 5abc0
cpkt address: 50780
cpkt address: 5ac00
cpkt address: 4ac40
cpkt address: 56c80
cpkt address: 56cc0
cpkt address: 57800
cpkt address: 5ad00
cpkt address: 56d40
cpkt address: 5ad80
cpkt address: 547c0
cpkt address: 5adc0
cpkt address: 5ae00
cpkt address: 5ae40
cpkt address: 5ae80
cpkt address: 56ec0
cpkt address: 5af00
cpkt address: 54800
cpkt address: 5af40
cpkt address: 3b840
cpkt address: 56f80
cpkt address: 5afc0
cpkt address: 4f000
cpkt address: 4f040
cpkt address: 4f080
cpkt address: 54840
cpkt address: 4b0c0
cpkt address: 5b100
cpkt address: 57140
cpkt address: 6b180
cpkt address: 5b180
cpkt address: 5b1c0
cpkt address: 5b200
cpkt address: 48880
cpkt address: 63240
cpkt address: 4f240
cpkt address: 4f280
cpkt address: 5b2c0
cpkt address: 3300
cpkt address: 5b340
cpkt address: 5b880
cpkt address: 4f380
cpkt address: 2c8c0
cpkt address: 4b3c0
cpkt address: 4f400
cpkt address: 4f440
cpkt address: 4f480
cpkt address: 4f4c0
cpkt address: 5b500
cpkt address: 5b500
cpkt address: 58900
cpkt address: 1b540
cpkt address: 4f540
cpkt address: 4b580
cpkt address: 2b580
cpkt address: 35c0
cpkt address: 4b5c0
cpkt address: 43600
cpkt address: 4f600
cpkt address: b640
cpkt address: 4f640
cpkt address: 43680
cpkt address: 4b680
cpkt address: 2c940
cpkt address: 4b6c0
cpkt address: 4f700
cpkt address: 4f740
cpkt address: 5b8c0
cpkt address: 4b780
cpkt address: 3b7c0
cpkt address: 4b7c0
cpkt address: b800
cpkt address: 4f800
cpkt address: 5c980
cpkt address: 3b840
cpkt address: 4b840
cpkt address: 4b880
cpkt address: 4b8c0
cpkt address: 4b900
cpkt address: 5b940
cpkt address: 4f980
cpkt address: 3c9c0
cpkt address: 4b9c0
cpkt address: 4ba00
cpkt address: 2ba40
cpkt address: 4ba80
cpkt address: 5bac0
cpkt address: 3fb00
cpkt address: 2ca00
cpkt address: 57900
cpkt address: 5bb40
cpkt address: 57b80
cpkt address: 4bbc0
cpkt address: 5bc00
cpkt address: 4bc40
cpkt address: 5bc80
cpkt address: 5ca40
cpkt address: 4bcc0
cpkt address: 4bd00
cpkt address: 3fd40
cpkt address: 4bd80
cpkt address: 5bdc0
cpkt address: 5be00
cpkt address: 5ca80
cpkt address: 4be40
cpkt address: 4be80
cpkt address: 4bec0
cpkt address: 4b940
cpkt address: 4bf00
cpkt address: 5bf40
cpkt address: 57f80
cpkt address: 5bfc0
cpkt address: 51000
cpkt address: 4d040
cpkt address: 51080
cpkt address: 510c0
cpkt address: 51100
cpkt address: 54b00
cpkt address: 49140
cpkt address: 4b980
cpkt address: 4d180
cpkt address: 511c0
cpkt address: 51200
cpkt address: 4d240
cpkt address: 4d280
cpkt address: 5cb40
cpkt address: 512c0
cpkt address: 51300
cpkt address: 51340
cpkt address: 4d380
cpkt address: 4d3c0
cpkt address: 4d400
cpkt address: 5cb80
cpkt address: 51440
cpkt address: 51480
cpkt address: 514c0
cpkt address: 51500
cpkt address: 539c0
cpkt address: 4d540
cpkt address: 55580
cpkt address: 5cbc0
cpkt address: 495c0
cpkt address: 4d600
cpkt address: 4d640
cpkt address: 4d680
cpkt address: 516c0
cpkt address: 51700
cpkt address: 54c00
cpkt address: 51740
cpkt address: 4d780
cpkt address: 457c0
cpkt address: 51800
cpkt address: 51840
cpkt address: 4d880
cpkt address: 5cc40
cpkt address: 518c0
cpkt address: 53a00
cpkt address: 51900
cpkt address: 51940
cpkt address: 51980
cpkt address: 519c0
cpkt address: 51a00
cpkt address: 5cc80
cpkt address: 51a40
cpkt address: 4da80
cpkt address: 4dac0
cpkt address: 51b00
cpkt address: 55b40
cpkt address: 51b80
cpkt address: 5ccc0
cpkt address: 55bc0
cpkt address: 51c00
cpkt address: 53a40
cpkt address: 51c40
cpkt address: 51c80
cpkt address: 4dcc0
cpkt address: 29d00
cpkt address: 5cd00
cpkt address: 55d40
cpkt address: 55d80
cpkt address: 51dc0
cpkt address: 51e00
cpkt address: 4de40
cpkt address: 51e80
cpkt address: 2cd40
cpkt address: 5ba80
cpkt address: 55ec0
cpkt address: 1f00
cpkt address: 51f40
cpkt address: 49f80
cpkt address: 49fc0
cpkt address: 16440
cpkt address: 5c440
cpkt address: 4c4c0
cpkt address: 5c480
cpkt address: 7a540
cpkt address: 12480
cpkt address: 1fc80
cpkt address: 5a940
cpkt address: 1f600
cpkt address: 13640
cpkt address: 6f500
cpkt address: 54d80
cpkt address: 5c6c0
cpkt address: 54dc0
cpkt address: 51f00
cpkt address: 13540
cpkt address: 5ce40
cpkt address: 1f5c0
cpkt address: 51780
cpkt address: 52140
cpkt address: 4c500
cpkt address: 52b00
cpkt address: 53740
cpkt address: 7900
cpkt address: 49b80
cpkt address: 71b80
cpkt address: dbc0
cpkt address: 517c0
cpkt address: 11c40
cpkt address: 39cc0
cpkt address: 9cc0
cpkt address: 9cc0
cpkt address: 7dd00
cpkt address: 1e300
cpkt address: 1ea80
cpkt address: 56b80
cpkt address: 12ac0
cpkt address: 46bc0
cpkt address: 52c00
cpkt address: 5ac40
cpkt address: 5ac80
cpkt address: 5acc0
cpkt address: 52d00
cpkt address: 5ad40
cpkt address: 52d80
cpkt address: 52dc0
cpkt address: 52e00
cpkt address: 46e40
cpkt address: 4ae80
cpkt address: 5aec0
cpkt address: 52f00
cpkt address: 52f40
cpkt address: 5af80
cpkt address: 52fc0
cpkt address: 53000
cpkt address: 53040
cpkt address: 2b080
cpkt address: 4f0c0
cpkt address: 53100
cpkt address: 53140
cpkt address: 53180
cpkt address: 531c0
cpkt address: 53200
cpkt address: 4b240
cpkt address: 53280
cpkt address: 4f2c0
cpkt address: 53300
cpkt address: 4f340
cpkt address: ed80
cpkt address: 52b40
cpkt address: 65d40
cpkt address: 21d80
cpkt address: 5d80
cpkt address: 65dc0
cpkt address: 4b180
cpkt address: 1b180
cpkt address: 4b300
cpkt address: f300
cpkt address: f340
cpkt address: 5b380
cpkt address: 7b1c0
cpkt address: 7b1c0
cpkt address: 53200
cpkt address: 1b200
cpkt address: 1b200
cpkt address: 7240
cpkt address: 2b740
cpkt address: 13740
cpkt address: 6d240
cpkt address: 54400
cpkt address: 2ce40
cpkt address: 4dc80
cpkt address: 5280
cpkt address: 543c0
cpkt address: 4c380
cpkt address: 15300
cpkt address: 95c0
cpkt address: 5600
cpkt address: 9740
cpkt address: d640
cpkt address: 940
cpkt address: 5f80
cpkt address: 4cec0
cpkt address: 5df40
cpkt address: 11fc0
cpkt address: 4c340
cpkt address: df00
cpkt address: 6000
cpkt address: 5ce80
cpkt address: 52180
cpkt address: 5680
cpkt address: 5980
cpkt address: 397c0
cpkt address: 97c0
cpkt address: 11800
cpkt address: 75840
cpkt address: 36080
cpkt address: 75880
cpkt address: 98c0
cpkt address: 37000
cpkt address: 93c0
cpkt address: 4c000
cpkt address: 43440
cpkt address: f440
cpkt address: 7940
cpkt address: 5c540
cpkt address: 5b1c0
cpkt address: 1b1c0
cpkt address: 1b1c0
cpkt address: 66500
cpkt address: 57640
cpkt address: 53600
cpkt address: 62540
cpkt address: 545c0
cpkt address: 4c600
cpkt address: 97c0
cpkt address: 117c0
cpkt address: 4f6c0
cpkt address: 75800
cpkt address: 58c0
cpkt address: 9380
cpkt address: c2c0
cpkt address: 54980
cpkt address: 3c6c0
cpkt address: 4c640
cpkt address: 4c740
cpkt address: 16400
cpkt address: 5b440
cpkt address: 62440
cpkt address: 664c0
cpkt address: 7a500
cpkt address: 53700
cpkt address: 54700
cpkt address: 12540
cpkt address: 4c680
cpkt address: 4c6c0
cpkt address: 1e580
cpkt address: 55500
cpkt address: 165c0
cpkt address: 55440
cpkt address: 7a640
cpkt address: 12b40
cpkt address: 5cc00
cpkt address: 5cc00
cpkt address: 66780
cpkt address: 6800
cpkt address: 6b80
cpkt address: 761c0
cpkt address: 76200
cpkt address: 6100
cpkt address: 736c0
cpkt address: 736c0
cpkt address: f740
cpkt address: 5cf80
cpkt address: 13780
cpkt address: 13780
cpkt address: 54b80
cpkt address: 6140
cpkt address: 76180
cpkt address: 1e8c0
cpkt address: ec00
cpkt address: 6c40
cpkt address: 6c80
cpkt address: 62400
cpkt address: 124c0
cpkt address: 6cc0
cpkt address: ed40
cpkt address: 16dc0
cpkt address: 16e00
cpkt address: 4c700
cpkt address: 73400
cpkt address: 83440
cpkt address: 73480
cpkt address: 1e880
cpkt address: 128c0
cpkt address: 4c9c0
cpkt address: 6900
cpkt address: 37040
cpkt address: 6940
cpkt address: 4ca00
cpkt address: 60480
cpkt address: 813c0
cpkt address: 11400
cpkt address: 2c740
cpkt address: 4b80
cpkt address: 20b80
cpkt address: 4f680
cpkt address: 4c00
cpkt address: 79380
Number of elements: 1000000, Number of cache blocks: 4, Number of iterations: 10
cpkt address: 793c0
cpkt address: 44bc0
cpkt address: 20bc0
cpkt address: 1d440
cpkt address: 54740
cpkt address: 12980
cpkt address: 62340
cpkt address: 6a380
cpkt address: 4cbc0
cpkt address: 5880
cpkt address: 4ccc0
cpkt address: 4cd00
cpkt address: 52000
cpkt address: 54a80
cpkt address: 4cac0
cpkt address: 4cac0
cpkt address: 4cb00
cpkt address: 54b40
cpkt address: 4cc40
cpkt address: 4f1c0
cpkt address: 5de80
cpkt address: 53240
cpkt address: 5df00
cpkt address: 5c500
cpkt address: 51ec0
cpkt address: 4f140
cpkt address: 2c4c0
cpkt address: 5c340
cpkt address: 4f300
cpkt address: 5df80
cpkt address: 4c400
cpkt address: 53440
cpkt address: 82ac0
cpkt address: 2c700
cpkt address: 534c0
cpkt address: a00
cpkt address: 4c3c0
cpkt address: 4c980
cpkt address: 5c940
cpkt address: 52980
cpkt address: 5c900
cpkt address: 5c8c0
cpkt address: 53400
cpkt address: 4c840
cpkt address: 5c880
cpkt address: 52500
cpkt address: 37180
cpkt address: 2c280
cpkt address: 5c800
cpkt address: 12a80
cpkt address: 36500
cpkt address: 536c0
cpkt address: 536c0
cpkt address: 22500
cpkt address: 522c0
cpkt address: 5a040
cpkt address: 2cc00
cpkt address: 5d840
cpkt address: 37340
cpkt address: 53cc0
cpkt address: 81640
cpkt address: 5c7c0
cpkt address: 5dc80
cpkt address: 89500
cpkt address: 37300
cpkt address: 5a8c0
cpkt address: 9bc0
cpkt address: 76b40
cpkt address: 51cc0
cpkt address: 38c00
cpkt address: 386c0
cpkt address: 76240
cpkt address: a280
cpkt address: 8a1c0
cpkt address: 4cc80
cpkt address: 4b480
cpkt address: 6f480
cpkt address: 4b6c0
cpkt address: 8b6c0
cpkt address: 43700
cpkt address: 73700
cpkt address: 4f340
cpkt address: 41440
Setting Dirty, Packet address: 41440
cpkt address: 11440
cpkt address: 11ac0
cpkt address: db00
cpkt address: 16780
cpkt address: 6e780
cpkt address: 9580
cpkt address: 5b000
cpkt address: 8d3c0
cpkt address: 5f440
cpkt address: 8a200
cpkt address: 68800
cpkt address: 87040
cpkt address: 53080
cpkt address: 530c0
cpkt address: 37100
cpkt address: 2b140
cpkt address: 4f180
cpkt address: 371c0
cpkt address: 4f200
cpkt address: 37240
cpkt address: 37280
cpkt address: 532c0
cpkt address: 2b300
cpkt address: 37340
cpkt address: 37380
cpkt address: 4f3c0
cpkt address: 4b400
cpkt address: 47440
cpkt address: 67440
cpkt address: 6f480
cpkt address: 53480
cpkt address: 1f4c0
cpkt address: 2b4c0
cpkt address: 4f500
cpkt address: 4f500
cpkt address: 4b540
cpkt address: 53580
cpkt address: 4f5c0
cpkt address: 47600
cpkt address: 37600
cpkt address: 53640
cpkt address: 53680
cpkt address: 2b6c0
cpkt address: 5b700
cpkt address: 67740
cpkt address: 4f780
cpkt address: 537c0
cpkt address: 53800
cpkt address: 2f840
cpkt address: 4f840
cpkt address: 4f880
cpkt address: 578c0
cpkt address: 538c0
cpkt address: 37900
Setting Dirty, Packet address: 37900
cpkt address: 53900
cpkt address: 47940
cpkt address: 53940
cpkt address: 4f980
cpkt address: 2b9c0
cpkt address: 3a00
cpkt address: 4fa40
cpkt address: 53a80
cpkt address: 57ac0
cpkt address: 53ac0
cpkt address: 4bb00
cpkt address: 53b40
cpkt address: 53b80
cpkt address: 53bc0
cpkt address: 4bc00
cpkt address: 3fc40
Setting Dirty, Packet address: 3fc40
cpkt address: 5bc40
cpkt address: 4bc80
cpkt address: 3fcc0
Setting Dirty, Packet address: 3fcc0
cpkt address: 5bcc0
cpkt address: 5bd00
cpkt address: 4bd40
cpkt address: 4fd80
cpkt address: 4bdc0
cpkt address: 53e00
cpkt address: 53e40
cpkt address: 57e80
cpkt address: 53e80
cpkt address: 5bec0
cpkt address: 53f00
cpkt address: 53f40
cpkt address: 4bf80
cpkt address: 4bfc0
cpkt address: 88000
cpkt address: 4c040
cpkt address: 2c080
cpkt address: 540c0
cpkt address: 4c100
cpkt address: 5c140
cpkt address: 5c180
cpkt address: 5c1c0
cpkt address: 4c200
cpkt address: 4c240
cpkt address: 4c280
cpkt address: 5c2c0
cpkt address: 4c300
cpkt address: 2c340
cpkt address: 5c380
cpkt address: 2c3c0
cpkt address: 2c400
cpkt address: 4c440
cpkt address: 480
cpkt address: 4c480
cpkt address: 5c4c0
cpkt address: 500
cpkt address: 50540
cpkt address: 4c540
cpkt address: 5c580
cpkt address: 4c5c0
cpkt address: 2c600
cpkt address: 5c640
cpkt address: 5c680
cpkt address: 386c0
Setting Dirty, Packet address: 386c0
cpkt address: 2c6c0
cpkt address: 3c700
cpkt address: 48740
cpkt address: 2c740
cpkt address: 38780
Setting Dirty, Packet address: 38780
cpkt address: 5c780
cpkt address: 87c0
cpkt address: 4c7c0
cpkt address: 58800
cpkt address: 4c800
cpkt address: 2c840
cpkt address: 2c880
cpkt address: 2c8c0
cpkt address: 4c900
cpkt address: 2c940
cpkt address: 980
cpkt address: 5c9c0
cpkt address: 2ca00
cpkt address: 2ca40
cpkt address: 2ca80
cpkt address: 2cac0
cpkt address: 5cb00
cpkt address: 2cb40
cpkt address: 4cb80
cpkt address: 2cbc0
cpkt address: 4cc00
cpkt address: 40c40
cpkt address: 2cc80
cpkt address: 54cc0
cpkt address: 2cd00
cpkt address: 90d00
cpkt address: 2cd00
cpkt address: 90d00
cpkt address: 54d00
cpkt address: 5cd40
cpkt address: 5cd40
cpkt address: 5cd80
cpkt address: 38dc0
cpkt address: 4ce00
cpkt address: 38e40
cpkt address: 54e80
cpkt address: 38ec0
cpkt address: 4cf00
cpkt address: 54f40
cpkt address: 8cf80
cpkt address: 54fc0
cpkt address: 49000
cpkt address: 5d040
cpkt address: 5d080
cpkt address: 5d0c0
cpkt address: 5d100
cpkt address: 5d140
cpkt address: 5d180
cpkt address: 5d1c0
cpkt address: 45200
cpkt address: 51240
cpkt address: 51280
cpkt address: 5d2c0
cpkt address: 45300
cpkt address: 5d340
cpkt address: 5d380
cpkt address: 513c0
cpkt address: 5d400
cpkt address: 89440
cpkt address: 89440
cpkt address: 4d480
cpkt address: 5d4c0
cpkt address: 59500
cpkt address: 5d540
cpkt address: 5d580
cpkt address: 5d5c0
cpkt address: 51600
cpkt address: 51640
cpkt address: 5d680
cpkt address: 396c0
cpkt address: 5d700
cpkt address: 39740
cpkt address: 4d740
cpkt address: 41780
Setting Dirty, Packet address: 41780
cpkt address: 69780
cpkt address: 117c0
cpkt address: 697c0
cpkt address: 49800
cpkt address: 4d800
cpkt address: 39840
cpkt address: 51880
cpkt address: 4d8c0
cpkt address: 4d900
cpkt address: 39940
cpkt address: 5d980
cpkt address: 4d9c0
cpkt address: 4da00
cpkt address: 5da40
cpkt address: 51a80
cpkt address: 51ac0
cpkt address: 4db00
cpkt address: 5db40
cpkt address: 51b80
cpkt address: 5db80
cpkt address: 49bc0
cpkt address: 51bc0
cpkt address: 5dc00
cpkt address: 39c40
cpkt address: 5dc40
cpkt address: 55c80
cpkt address: 41cc0
Setting Dirty, Packet address: 41cc0
cpkt address: 29cc0
cpkt address: 21d00
cpkt address: 5dd00
cpkt address: 59d40
cpkt address: 51d40
cpkt address: 29d80
Setting Dirty, Packet address: 29d80
cpkt address: 5dd80
cpkt address: 5ddc0
cpkt address: 5de00
cpkt address: 51e40
cpkt address: 29e80
Setting Dirty, Packet address: 29e80
cpkt address: 55e80
cpkt address: 51ec0
cpkt address: 5dec0
cpkt address: 51f00
cpkt address: 1f00
cpkt address: 39f40
cpkt address: 69f40
cpkt address: 1f80
cpkt address: 51fc0
cpkt address: 36000
cpkt address: 36040
cpkt address: 3e080
cpkt address: 560c0
cpkt address: 56100
cpkt address: 56140
cpkt address: 3e180
cpkt address: 521c0
cpkt address: 5a200
cpkt address: 5a240
cpkt address: 52280
cpkt address: 362c0
cpkt address: 52300
cpkt address: 5a340
cpkt address: 52380
cpkt address: 363c0
cpkt address: 52400
cpkt address: 52440
cpkt address: 5a480
cpkt address: 524c0
cpkt address: 36500
cpkt address: 36540
cpkt address: 36580
cpkt address: 525c0
cpkt address: 5a600
cpkt address: 52640
cpkt address: 52680
cpkt address: 526c0
cpkt address: 52700
cpkt address: 5a740
cpkt address: 52780
cpkt address: 527c0
cpkt address: 52800
cpkt address: 52840
cpkt address: 52880
cpkt address: 528c0
cpkt address: 56900
cpkt address: 52940
cpkt address: 5a980
cpkt address: 529c0
cpkt address: 52a00
cpkt address: 2aa40
cpkt address: 52a80
cpkt address: 52ac0
cpkt address: 5ab00
cpkt address: 5ab40
cpkt address: 3eb80
cpkt address: 52bc0
cpkt address: 3ec00
cpkt address: 3ec40
cpkt address: 3ec80
cpkt address: 3ecc0
cpkt address: 56d00
cpkt address: 3ed40
cpkt address: 56d80
cpkt address: 3edc0
cpkt address: 56e00
cpkt address: 52e40
cpkt address: 3ee80
cpkt address: 3eec0
cpkt address: 46f00
cpkt address: 3ef40
cpkt address: 52f80
cpkt address: 3efc0
cpkt address: 3b000
cpkt address: 87000
cpkt address: 8f040
cpkt address: 37080
cpkt address: 8f0c0
cpkt address: 4f100
cpkt address: 8f140
cpkt address: 1b180
cpkt address: 2b180
cpkt address: 531c0
cpkt address: 8f1c0
cpkt address: 5b200
cpkt address: 37200
cpkt address: 4b240
cpkt address: 8f240
cpkt address: 8f280
cpkt address: 372c0
cpkt address: 8f300
cpkt address: 8f340
cpkt address: 3b380
cpkt address: 53380
cpkt address: 533c0
cpkt address: 5b400
cpkt address: 8f400
cpkt address: 4b440
cpkt address: 2b440
cpkt address: 2b480
cpkt address: 434c0
cpkt address: 8f4c0
cpkt address: 2b500
Setting Dirty, Packet address: 2b500
cpkt address: 53500
cpkt address: 3b540
cpkt address: 8f540
cpkt address: 8f580
cpkt address: 8f5c0
cpkt address: 5b600
cpkt address: 57600
cpkt address: 3640
cpkt address: 37640
cpkt address: 13680
cpkt address: 8f680
cpkt address: 3b6c0
cpkt address: 8f6c0
cpkt address: 53700
cpkt address: 8f700
cpkt address: 5b740
cpkt address: 8f740
cpkt address: 53780
cpkt address: 437c0
cpkt address: 8f7c0
cpkt address: 2b800
cpkt address: 8f800
cpkt address: b840
cpkt address: 8f840
cpkt address: 8f880
cpkt address: 8f8c0
cpkt address: 4f900
cpkt address: 8f940
cpkt address: 53980
cpkt address: 4f9c0
cpkt address: 53a00
cpkt address: 4fa00
cpkt address: 8fa40
cpkt address: 4fa80
cpkt address: 4bac0
cpkt address: 5bb00
cpkt address: 53b00
cpkt address: bb40
cpkt address: 4bb40
cpkt address: bb80
cpkt address: 4bb80
cpkt address: 57bc0
cpkt address: 3bc00
cpkt address: 53c00
cpkt address: 2bc40
Setting Dirty, Packet address: 2bc40
cpkt address: 8fc40
cpkt address: 8fc80
cpkt address: 8fcc0
cpkt address: 8fd00
cpkt address: 53d40
cpkt address: 53d80
cpkt address: 8fdc0
cpkt address: 4be00
cpkt address: 5be40
cpkt address: 4fe80
cpkt address: 53ec0
cpkt address: 8ff00
cpkt address: 8ff40
cpkt address: 53f80
cpkt address: 53fc0
cpkt address: 90000
cpkt address: 5c040
cpkt address: 1c080
cpkt address: 90080
cpkt address: 900c0
cpkt address: 44100
cpkt address: 50100
cpkt address: 54140
cpkt address: 90140
cpkt address: 4c180
cpkt address: 4c1c0
cpkt address: 90200
cpkt address: 5c240
cpkt address: 90280
cpkt address: 4c2c0
cpkt address: 5c300
cpkt address: 340
cpkt address: 90380
cpkt address: 903c0
cpkt address: 400
cpkt address: 2c440
cpkt address: 90480
cpkt address: 904c0
cpkt address: 2c500
cpkt address: 90540
cpkt address: 4c580
cpkt address: 2c5c0
cpkt address: 90600
cpkt address: 90640
cpkt address: 2c680
cpkt address: 3c6c0
cpkt address: 3c700
Setting Dirty, Packet address: 3c700
cpkt address: 90700
cpkt address: 74740
cpkt address: 38740
cpkt address: 4c780
cpkt address: 4c780
cpkt address: 447c0
cpkt address: 907c0
cpkt address: 2c800
cpkt address: 5c840
cpkt address: 4c880
cpkt address: 4c8c0
cpkt address: 90900
cpkt address: 90940
cpkt address: 2c980
cpkt address: 4c9c0
cpkt address: 9c0
cpkt address: 54a00
cpkt address: 90a00
cpkt address: 90a40
cpkt address: 90a80
cpkt address: 2cac0
Setting Dirty, Packet address: 2cac0
cpkt address: 5cac0
cpkt address: 2cb00
cpkt address: 4cb40
cpkt address: 4cb40
cpkt address: 1cb80
cpkt address: 2cb80
cpkt address: 3cbc0
Setting Dirty, Packet address: 3cbc0
cpkt address: 54bc0
cpkt address: 3cc00
Setting Dirty, Packet address: 3cc00
cpkt address: 90c00
cpkt address: 5cc40
cpkt address: 2cc40
cpkt address: 3cc80
Setting Dirty, Packet address: 3cc80
cpkt address: 90c80
cpkt address: 2ccc0
cpkt address: 54d00
cpkt address: 90d00
cpkt address: 4cd40
cpkt address: 90d80
cpkt address: 4dc0
cpkt address: 90dc0
cpkt address: 44e00
cpkt address: 90e00
cpkt address: 5ce40
cpkt address: 54e40
cpkt address: 44e80
cpkt address: 90e80
cpkt address: 3cec0
Setting Dirty, Packet address: 3cec0
cpkt address: 5cec0
cpkt address: 4cf00
cpkt address: 5cf00
cpkt address: 44f40
cpkt address: 5cf40
cpkt address: 4cf80
cpkt address: 90f80
cpkt address: 54fc0
cpkt address: 5cfc0
cpkt address: 5d000
cpkt address: 51040
cpkt address: 49080
cpkt address: 4d0c0
cpkt address: 91100
cpkt address: 91140
cpkt address: 91180
cpkt address: 4d1c0
cpkt address: 4d200
cpkt address: 91200
cpkt address: 91240
cpkt address: 5d280
cpkt address: 912c0
cpkt address: 91300
cpkt address: 91340
cpkt address: 51380
cpkt address: 5d3c0
cpkt address: 51400
cpkt address: 5d440
cpkt address: 5d480
cpkt address: 554c0
cpkt address: 5d500
cpkt address: 91540
cpkt address: 91580
cpkt address: 915c0
cpkt address: 5d600
cpkt address: 5d640
cpkt address: 91680
cpkt address: 916c0
cpkt address: 61700
cpkt address: 91740
cpkt address: 91780
cpkt address: 5d7c0
cpkt address: 91800
cpkt address: 49840
cpkt address: 5d880
cpkt address: 5d8c0
cpkt address: 91900
cpkt address: 5d940
cpkt address: 55980
cpkt address: 5d9c0
cpkt address: 5da00
cpkt address: 55a40
cpkt address: 5da80
cpkt address: 91ac0
cpkt address: 91b00
cpkt address: 91b40
cpkt address: 4db80
cpkt address: 91bc0
cpkt address: 91c00
cpkt address: 91c40
cpkt address: 91c80
cpkt address: 91cc0
cpkt address: 4dd00
cpkt address: 91d00
cpkt address: 5dd40
cpkt address: 51d80
cpkt address: 91dc0
cpkt address: 39e00
cpkt address: 5de40
cpkt address: 91e80
cpkt address: 91ec0
cpkt address: 91f00
cpkt address: 4df40
cpkt address: 51f80
cpkt address: 5dfc0
cpkt address: 92000
cpkt address: 52040
cpkt address: 92080
cpkt address: 920c0
cpkt address: 92100
cpkt address: 92140
cpkt address: 3e180
Setting Dirty, Packet address: 3e180
cpkt address: 92180
cpkt address: 5a1c0
cpkt address: 92200
cpkt address: 52240
cpkt address: 5e280
cpkt address: 92280
cpkt address: 462c0
cpkt address: 922c0
cpkt address: 76300
cpkt address: 36300
cpkt address: 92340
cpkt address: 92380
cpkt address: 523c0
cpkt address: 1e400
cpkt address: 5a400
cpkt address: 4e440
cpkt address: 92440
cpkt address: 92480
cpkt address: 464c0
cpkt address: 924c0
cpkt address: 92500
cpkt address: 52540
cpkt address: 16580
cpkt address: 92580
cpkt address: 925c0
cpkt address: 52600
cpkt address: 92640
cpkt address: 5a680
cpkt address: 926c0
cpkt address: 92700
cpkt address: 52740
cpkt address: 66780
cpkt address: 5a780
cpkt address: 5a7c0
cpkt address: 92800
cpkt address: 92840
cpkt address: 5a880
cpkt address: 4e8c0
cpkt address: 928c0
cpkt address: 92900
cpkt address: 2a940
cpkt address: 2a980
cpkt address: 929c0
cpkt address: 92a00
cpkt address: 52a40
cpkt address: 5aa80
cpkt address: 2aac0
cpkt address: 3eb00
cpkt address: 92b40
cpkt address: 92b80
cpkt address: 3ebc0
cpkt address: 3ac00
cpkt address: 52c40
cpkt address: 52c80
cpkt address: 52cc0
cpkt address: 92d00
cpkt address: 92d40
cpkt address: 3ed80
cpkt address: 92dc0
cpkt address: 3ee00
cpkt address: 3ee40
cpkt address: 52e80
cpkt address: 52ec0
cpkt address: 3ef00
cpkt address: 2af40
cpkt address: 92f80
cpkt address: 92fc0
cpkt address: 93000
cpkt address: 5b040
cpkt address: 8f080
cpkt address: 930c0
cpkt address: 8f100
cpkt address: 93140
cpkt address: 93180
cpkt address: 2b1c0
cpkt address: 93200
cpkt address: 2b240
cpkt address: 93280
cpkt address: 8f2c0
cpkt address: 3b300
cpkt address: 53340
cpkt address: 8f380
cpkt address: 933c0
cpkt address: 2b400
cpkt address: 57440
cpkt address: 8f440
cpkt address: f480
cpkt address: 93480
cpkt address: 574c0
cpkt address: 934c0
cpkt address: 37500
Setting Dirty, Packet address: 37500
cpkt address: 93500
cpkt address: 8f540
Setting Dirty, Packet address: 8f540
cpkt address: 93540
cpkt address: 4f580
cpkt address: f5c0
cpkt address: 935c0
cpkt address: 93600
cpkt address: 8f640
cpkt address: 37680
cpkt address: 936c0
cpkt address: 37700
cpkt address: 93740
cpkt address: 93780
cpkt address: 3f7c0
Setting Dirty, Packet address: 3f7c0
cpkt address: 4f7c0
cpkt address: 3f800
Setting Dirty, Packet address: 3f800
cpkt address: 93800
cpkt address: 47840
cpkt address: 53840
cpkt address: 3f880
Setting Dirty, Packet address: 3f880
cpkt address: 93880
cpkt address: 938c0
cpkt address: 8f900
cpkt address: 7900
cpkt address: 4f940
cpkt address: 93980
cpkt address: 939c0
cpkt address: 8fa00
cpkt address: 4ba40
cpkt address: 47a80
cpkt address: 93a80
cpkt address: 93ac0
cpkt address: 37b00
Setting Dirty, Packet address: 37b00
cpkt address: 93b00
cpkt address: 93b40
cpkt address: 47b80
cpkt address: 8fb80
cpkt address: 93bc0
cpkt address: 57c00
cpkt address: 93c00
cpkt address: 8fc40
Setting Dirty, Packet address: 8fc40
cpkt address: 53c40
cpkt address: 8fc80
Setting Dirty, Packet address: 8fc80
cpkt address: 93c80
cpkt address: 4fcc0
cpkt address: 93cc0
cpkt address: 93d00
cpkt address: 47d40
cpkt address: 8fd40
cpkt address: 93d80
cpkt address: 93dc0
cpkt address: 57e00
cpkt address: 93e00
cpkt address: 3fe40
Setting Dirty, Packet address: 3fe40
cpkt address: 8fe40
cpkt address: 37e80
Setting Dirty, Packet address: 37e80
cpkt address: 93e80
cpkt address: 3fec0
Setting Dirty, Packet address: 3fec0
cpkt address: 8fec0
cpkt address: 93f00
cpkt address: 93f40
cpkt address: 37f80
Setting Dirty, Packet address: 37f80
cpkt address: 8ff80
cpkt address: 8ffc0
cpkt address: 94000
cpkt address: 90040
cpkt address: 4c080
cpkt address: 380c0
Setting Dirty, Packet address: 380c0
cpkt address: 940c0
cpkt address: 90100
cpkt address: 4c140
cpkt address: 94180
cpkt address: 901c0
cpkt address: 50200
cpkt address: 94200
cpkt address: 90240
cpkt address: 94280
cpkt address: 682c0
cpkt address: 942c0
cpkt address: 94300
cpkt address: 94340
cpkt address: 94380
cpkt address: 3c0
cpkt address: 48400
cpkt address: 94400
cpkt address: 48440
cpkt address: 90440
cpkt address: 40480
cpkt address: 2c480
cpkt address: 4c0
cpkt address: 90500
cpkt address: 48540
cpkt address: 94540
cpkt address: 94580
cpkt address: 905c0
cpkt address: 50600
cpkt address: 5c600
cpkt address: 90640
Setting Dirty, Packet address: 90640
cpkt address: 94640
cpkt address: 38680
Setting Dirty, Packet address: 38680
cpkt address: 90680
cpkt address: 946c0
cpkt address: 90700
Setting Dirty, Packet address: 90700
cpkt address: 94700
cpkt address: 94740
cpkt address: 90780
cpkt address: 487c0
cpkt address: 2c7c0
cpkt address: 90800
cpkt address: 58840
cpkt address: 90840
cpkt address: 90880
cpkt address: 908c0
cpkt address: 2c900
cpkt address: 4c940
cpkt address: 90980
cpkt address: 909c0
cpkt address: 5ca00
cpkt address: 94a40
cpkt address: 94a80
cpkt address: 94ac0
cpkt address: 94b00
cpkt address: 94b40
cpkt address: 90b80
cpkt address: 90bc0
cpkt address: 2cc00
cpkt address: 90c40
cpkt address: 94c80
cpkt address: 94cc0
cpkt address: 2cd00
cpkt address: 98d00
cpkt address: 94d00
cpkt address: 94d40
cpkt address: 94d80
cpkt address: 5cdc0
cpkt address: 94e00
cpkt address: 90e40
cpkt address: 94e80
cpkt address: 94ec0
cpkt address: 90f00
cpkt address: 90f40
cpkt address: 54f80
cpkt address: 90fc0
cpkt address: 91000
cpkt address: 91040
cpkt address: 95080
cpkt address: 910c0
cpkt address: 95100
cpkt address: 51140
cpkt address: 51180
cpkt address: 911c0
cpkt address: 5d200
cpkt address: 5d240
cpkt address: 41280
Setting Dirty, Packet address: 41280
cpkt address: 91280
cpkt address: 4d2c0
cpkt address: 95300
cpkt address: 95340
cpkt address: 49380
cpkt address: 91380
cpkt address: 913c0
cpkt address: 51400
cpkt address: 91400
cpkt address: 91440
cpkt address: 91480
cpkt address: 954c0
cpkt address: 89500
cpkt address: 91500
cpkt address: 51540
cpkt address: 95580
cpkt address: 955c0
cpkt address: 95600
cpkt address: 91640
cpkt address: 51680
cpkt address: 956c0
cpkt address: 49700
cpkt address: 95700
cpkt address: 51740
cpkt address: 95740
cpkt address: 69780
Setting Dirty, Packet address: 69780
cpkt address: 5d780
cpkt address: 957c0
cpkt address: 95800
cpkt address: 95840
cpkt address: 91880
cpkt address: 98c0
cpkt address: 958c0
cpkt address: 39900
cpkt address: 5d900
cpkt address: 95940
cpkt address: 11980
cpkt address: 95980
cpkt address: 959c0
cpkt address: 95a00
cpkt address: 91a40
cpkt address: 95a80
cpkt address: 41ac0
Setting Dirty, Packet address: 41ac0
cpkt address: 5dac0
cpkt address: 5db00
cpkt address: 51b40
cpkt address: 11b80
cpkt address: 95b80
cpkt address: 95bc0
cpkt address: 31c00
cpkt address: 4dc00
cpkt address: 49c40
cpkt address: 4dc40
cpkt address: 95c80
cpkt address: 95cc0
cpkt address: 49d00
cpkt address: 95d00
cpkt address: 49d40
cpkt address: 95d40
cpkt address: 39d80
cpkt address: 95d80
cpkt address: 29dc0
cpkt address: 95e00
cpkt address: 39e40
cpkt address: 91e40
cpkt address: 91e80
Setting Dirty, Packet address: 91e80
cpkt address: 95e80
cpkt address: 1ec0
cpkt address: 95f00
cpkt address: 91f40
cpkt address: 95f80
cpkt address: 95fc0
cpkt address: 2000
cpkt address: 92040
cpkt address: 52080
cpkt address: 960c0
cpkt address: 96100
cpkt address: 3e140
cpkt address: 92180
Setting Dirty, Packet address: 92180
cpkt address: 96180
cpkt address: 921c0
cpkt address: 52200
cpkt address: 96240
cpkt address: 96280
cpkt address: 962c0
cpkt address: 96300
cpkt address: 52340
cpkt address: 5a380
cpkt address: 923c0
cpkt address: 96400
cpkt address: 96440
cpkt address: 96480
cpkt address: 924c0
Setting Dirty, Packet address: 924c0
cpkt address: 5a4c0
cpkt address: 22500
cpkt address: 96500
cpkt address: 96540
cpkt address: 52580
cpkt address: 965c0
cpkt address: 96600
cpkt address: 56640
cpkt address: 92680
cpkt address: 966c0
cpkt address: 5a700
cpkt address: 96740
cpkt address: 92780
cpkt address: 927c0
cpkt address: 56800
cpkt address: 42840
cpkt address: 92880
cpkt address: 3a8c0
cpkt address: 3a8c0
cpkt address: 96900
cpkt address: 92940
cpkt address: 96980
cpkt address: 529c0
cpkt address: 5a9c0
cpkt address: 96a00
cpkt address: 96a40
cpkt address: 96a80
cpkt address: 96ac0
cpkt address: 92b00
cpkt address: 3eb40
cpkt address: 96b80
cpkt address: 96bc0
cpkt address: 92c00
cpkt address: 96c40
cpkt address: 96c80
cpkt address: 92cc0
cpkt address: 96d00
cpkt address: 52d40
cpkt address: 96d80
cpkt address: 96dc0
cpkt address: 42e00
cpkt address: 92e00
cpkt address: 92e40
cpkt address: 42e80
cpkt address: 92e80
cpkt address: 92ec0
cpkt address: 96f00
cpkt address: 96f40
cpkt address: 3ef80
cpkt address: 56fc0
cpkt address: 43000
cpkt address: 8f000
cpkt address: 3b040
cpkt address: 97040
cpkt address: 97080
cpkt address: 370c0
cpkt address: 43100
cpkt address: 93100
cpkt address: 2b140
Setting Dirty, Packet address: 2b140
cpkt address: 37140
cpkt address: 93180
Setting Dirty, Packet address: 93180
cpkt address: 8f180
cpkt address: 231c0
cpkt address: 931c0
[...]
cpkt address: 1064c0
Setting Dirty, Packet address: 1064c0
cpkt address: 22e4c0
cpkt address: 176500
cpkt address: 216500
Setting Dirty, Packet address: 216500
cpkt address: 232500
cpkt address: 1f6540
cpkt address: 1c6540
Setting Dirty, Packet address: 1c6540
cpkt address: 232540
cpkt address: b6580
cpkt address: 1ee580
Setting Dirty, Packet address: 1ee580
cpkt address: 232580
cpkt address: 1b65c0
cpkt address: 2165c0
Setting Dirty, Packet address: 2165c0
cpkt address: 22e5c0
cpkt address: 1f6600
Setting Dirty, Packet address: 1f6600
cpkt address: 232600
cpkt address: 136600
cpkt address: 1b6640
cpkt address: 21e640
Setting Dirty, Packet address: 21e640
cpkt address: 222640
cpkt address: 206680
Setting Dirty, Packet address: 206680
cpkt address: 226680
cpkt address: 156680
Setting Dirty, Packet address: 156680
cpkt address: 1de6c0
Setting Dirty, Packet address: 1de6c0
cpkt address: 2326c0
cpkt address: 232700
cpkt address: 226740
Setting Dirty, Packet address: 226740
cpkt address: 22a740
cpkt address: 1e6780
Setting Dirty, Packet address: 1e6780
cpkt address: 226780
cpkt address: 1fe7c0
Setting Dirty, Packet address: 1fe7c0
cpkt address: 22e7c0
cpkt address: 1f6800
Setting Dirty, Packet address: 1f6800
cpkt address: 232800
cpkt address: 21e840
Setting Dirty, Packet address: 21e840
cpkt address: 232840
cpkt address: 136880
cpkt address: 1f6880
Setting Dirty, Packet address: 1f6880
cpkt address: 232880
cpkt address: 1768c0
cpkt address: 1fe8c0
Setting Dirty, Packet address: 1fe8c0
cpkt address: 2328c0
cpkt address: 1a6900
Setting Dirty, Packet address: 1a6900
cpkt address: 232900
cpkt address: 1d6940
Setting Dirty, Packet address: 1d6940
cpkt address: 22a940
cpkt address: 21a940
Setting Dirty, Packet address: 21a940
cpkt address: 1ae980
Setting Dirty, Packet address: 1ae980
cpkt address: 232980
cpkt address: 1f69c0
Setting Dirty, Packet address: 1f69c0
cpkt address: 22e9c0
cpkt address: 1fea00
Setting Dirty, Packet address: 1fea00
cpkt address: 232a00
cpkt address: 1b6a40
Setting Dirty, Packet address: 1b6a40
cpkt address: 232a40
cpkt address: 206a80
Setting Dirty, Packet address: 206a80
cpkt address: 22aa80
cpkt address: 16eac0
Setting Dirty, Packet address: 16eac0
cpkt address: 232ac0
cpkt address: 16eb00
Setting Dirty, Packet address: 16eb00
cpkt address: 232b00
cpkt address: 226b40
Setting Dirty, Packet address: 226b40
cpkt address: 232b40
cpkt address: 216b80
Setting Dirty, Packet address: 216b80
cpkt address: 232b80
cpkt address: 20ebc0
Setting Dirty, Packet address: 20ebc0
cpkt address: 22ebc0
cpkt address: 226c00
Setting Dirty, Packet address: 226c00
cpkt address: 232c00
cpkt address: 22ec40
Setting Dirty, Packet address: 22ec40
cpkt address: 20ec40
cpkt address: 216c80
Setting Dirty, Packet address: 216c80
cpkt address: 22ec80
cpkt address: 176cc0
Setting Dirty, Packet address: 176cc0
cpkt address: 22acc0
cpkt address: 1ded00
Setting Dirty, Packet address: 1ded00
cpkt address: 232d00
cpkt address: 20ed40
Setting Dirty, Packet address: 20ed40
cpkt address: 232d40
cpkt address: 22ed80
Setting Dirty, Packet address: 22ed80
cpkt address: 232d80
cpkt address: 216dc0
Setting Dirty, Packet address: 216dc0
cpkt address: 22edc0
cpkt address: 1eee00
Setting Dirty, Packet address: 1eee00
cpkt address: 22ee00
cpkt address: 226e40
Setting Dirty, Packet address: 226e40
cpkt address: 21ee40
cpkt address: 1eee40
Setting Dirty, Packet address: 1eee40
cpkt address: 20ee80
Setting Dirty, Packet address: 20ee80
cpkt address: 22ae80
cpkt address: 216ec0
Setting Dirty, Packet address: 216ec0
cpkt address: 232ec0
cpkt address: 1c6f00
Setting Dirty, Packet address: 1c6f00
cpkt address: 22af00
cpkt address: 1d6f40
Setting Dirty, Packet address: 1d6f40
cpkt address: 232f40
cpkt address: 21ef80
Setting Dirty, Packet address: 21ef80
cpkt address: 22af80
cpkt address: 20efc0
Setting Dirty, Packet address: 20efc0
cpkt address: 22afc0
cpkt address: 207000
Setting Dirty, Packet address: 207000
cpkt address: 233000
cpkt address: 1f7040
Setting Dirty, Packet address: 1f7040
cpkt address: 22f040
cpkt address: 1f7080
Setting Dirty, Packet address: 1f7080
cpkt address: 233080
cpkt address: 2270c0
Setting Dirty, Packet address: 2270c0
cpkt address: 2330c0
cpkt address: 15f100
Setting Dirty, Packet address: 15f100
cpkt address: 233100
cpkt address: 207140
Setting Dirty, Packet address: 207140
cpkt address: 233140
cpkt address: 1d7180
Setting Dirty, Packet address: 1d7180
cpkt address: 22f180
cpkt address: 18f1c0
Setting Dirty, Packet address: 18f1c0
cpkt address: 2331c0
cpkt address: 207200
Setting Dirty, Packet address: 207200
cpkt address: 227200
cpkt address: 1ef240
Setting Dirty, Packet address: 1ef240
cpkt address: 223240
cpkt address: 20f280
Setting Dirty, Packet address: 20f280
cpkt address: 233280
cpkt address: 1972c0
Setting Dirty, Packet address: 1972c0
cpkt address: 2332c0
cpkt address: 207300
Setting Dirty, Packet address: 207300
cpkt address: 233300
cpkt address: 187340
Setting Dirty, Packet address: 187340
cpkt address: 22f340
cpkt address: 1f7380
Setting Dirty, Packet address: 1f7380
cpkt address: 22f380
cpkt address: 15f3c0
Setting Dirty, Packet address: 15f3c0
cpkt address: 2333c0
cpkt address: 177400
Setting Dirty, Packet address: 177400
cpkt address: 22f400
cpkt address: 227440
Setting Dirty, Packet address: 227440
cpkt address: 233440
cpkt address: 227480
Setting Dirty, Packet address: 227480
cpkt address: 22b480
cpkt address: 1e74c0
Setting Dirty, Packet address: 1e74c0
cpkt address: 22b4c0
cpkt address: 1db4c0
Setting Dirty, Packet address: 1db4c0
cpkt address: 20f500
Setting Dirty, Packet address: 20f500
cpkt address: 233500
cpkt address: 217540
Setting Dirty, Packet address: 217540
cpkt address: 22b540
cpkt address: 22f580
Setting Dirty, Packet address: 22f580
cpkt address: 233580
cpkt address: 21f5c0
Setting Dirty, Packet address: 21f5c0
cpkt address: 22f5c0
cpkt address: 217600
Setting Dirty, Packet address: 217600
cpkt address: 233600
cpkt address: 20f640
Setting Dirty, Packet address: 20f640
cpkt address: 233640
cpkt address: 227680
Setting Dirty, Packet address: 227680
cpkt address: 233680
cpkt address: 21f6c0
Setting Dirty, Packet address: 21f6c0
cpkt address: 22f6c0
cpkt address: 21f700
Setting Dirty, Packet address: 21f700
cpkt address: 233700
cpkt address: 1d7740
Setting Dirty, Packet address: 1d7740
cpkt address: 233740
cpkt address: 21f780
Setting Dirty, Packet address: 21f780
cpkt address: 233780
cpkt address: 377c0
cpkt address: 22f7c0
cpkt address: 14f7c0
Setting Dirty, Packet address: 14f7c0
cpkt address: f7800
cpkt address: 20f800
Setting Dirty, Packet address: 20f800
cpkt address: 233800
cpkt address: 177840
cpkt address: 207840
Setting Dirty, Packet address: 207840
cpkt address: 22b840
cpkt address: f7880
cpkt address: 20f880
Setting Dirty, Packet address: 20f880
cpkt address: 22f880
cpkt address: 1ff8c0
Setting Dirty, Packet address: 1ff8c0
cpkt address: 2338c0
cpkt address: 1c7900
Setting Dirty, Packet address: 1c7900
cpkt address: 21b900
cpkt address: 137940
cpkt address: 1ef940
Setting Dirty, Packet address: 1ef940
cpkt address: 22b940
cpkt address: 207980
Setting Dirty, Packet address: 207980
cpkt address: 233980
cpkt address: 2179c0
Setting Dirty, Packet address: 2179c0
cpkt address: 2339c0
cpkt address: 21fa00
Setting Dirty, Packet address: 21fa00
cpkt address: 233a00
cpkt address: 1e7a40
Setting Dirty, Packet address: 1e7a40
cpkt address: 233a40
cpkt address: 22fa80
Setting Dirty, Packet address: 22fa80
cpkt address: 22ba80
cpkt address: 21fac0
Setting Dirty, Packet address: 21fac0
cpkt address: 22bac0
cpkt address: 1e7b00
Setting Dirty, Packet address: 1e7b00
cpkt address: 233b00
cpkt address: 1a7b40
Setting Dirty, Packet address: 1a7b40
cpkt address: 233b40
cpkt address: 227b80
Setting Dirty, Packet address: 227b80
cpkt address: 233b80
cpkt address: 217bc0
Setting Dirty, Packet address: 217bc0
cpkt address: 233bc0
cpkt address: 207c00
Setting Dirty, Packet address: 207c00
cpkt address: 22bc00
cpkt address: 1e3c00
Setting Dirty, Packet address: 1e3c00
cpkt address: 227c40
Setting Dirty, Packet address: 227c40
cpkt address: 233c40
cpkt address: 20fc80
Setting Dirty, Packet address: 20fc80
cpkt address: 233c80
cpkt address: 1dfcc0
Setting Dirty, Packet address: 1dfcc0
cpkt address: 227cc0
cpkt address: 21fd00
Setting Dirty, Packet address: 21fd00
cpkt address: 22bd00
cpkt address: 19fd40
Setting Dirty, Packet address: 19fd40
cpkt address: 22fd40
cpkt address: 227d40
Setting Dirty, Packet address: 227d40
cpkt address: 21fd80
Setting Dirty, Packet address: 21fd80
cpkt address: 233d80
cpkt address: 217dc0
Setting Dirty, Packet address: 217dc0
cpkt address: 233dc0
cpkt address: 1dfe00
Setting Dirty, Packet address: 1dfe00
cpkt address: 233e00
cpkt address: 1a7e40
Setting Dirty, Packet address: 1a7e40
cpkt address: 22fe40
cpkt address: 20fe80
Setting Dirty, Packet address: 20fe80
cpkt address: 233e80
cpkt address: 21fec0
Setting Dirty, Packet address: 21fec0
cpkt address: 233ec0
cpkt address: 207f00
Setting Dirty, Packet address: 207f00
cpkt address: 233f00
cpkt address: 21ff40
Setting Dirty, Packet address: 21ff40
cpkt address: 223f40
cpkt address: 1c3f40
Setting Dirty, Packet address: 1c3f40
cpkt address: 22ff80
Setting Dirty, Packet address: 22ff80
cpkt address: 227f80
cpkt address: 1cffc0
Setting Dirty, Packet address: 1cffc0
cpkt address: 233fc0
cpkt address: 1e8000
Setting Dirty, Packet address: 1e8000
cpkt address: 230000
cpkt address: 210040
Setting Dirty, Packet address: 210040
cpkt address: 230040
cpkt address: 228080
Setting Dirty, Packet address: 228080
cpkt address: 234080
cpkt address: 2000c0
Setting Dirty, Packet address: 2000c0
cpkt address: 2340c0
cpkt address: 220100
Setting Dirty, Packet address: 220100
cpkt address: 234100
cpkt address: 218140
Setting Dirty, Packet address: 218140
cpkt address: 224140
cpkt address: 1f0180
Setting Dirty, Packet address: 1f0180
cpkt address: 230180
cpkt address: 1381c0
cpkt address: 2181c0
Setting Dirty, Packet address: 2181c0
cpkt address: 2341c0
cpkt address: 234200
cpkt address: 178240
cpkt address: 228240
Setting Dirty, Packet address: 228240
cpkt address: 224240
cpkt address: 22c240
Setting Dirty, Packet address: 22c240
cpkt address: 138280
cpkt address: 230280
cpkt address: 1d8280
Setting Dirty, Packet address: 1d8280
cpkt address: 2082c0
Setting Dirty, Packet address: 2082c0
cpkt address: 2342c0
cpkt address: b8300
cpkt address: f8300
Setting Dirty, Packet address: f8300
cpkt address: 228300
cpkt address: f8340
cpkt address: 234340
cpkt address: 228380
Setting Dirty, Packet address: 228380
cpkt address: 230380
cpkt address: 1383c0
cpkt address: 2203c0
Setting Dirty, Packet address: 2203c0
cpkt address: 22c3c0
cpkt address: 178400
cpkt address: 1c0400
Setting Dirty, Packet address: 1c0400
cpkt address: 230400
cpkt address: 38440
cpkt address: 200440
Setting Dirty, Packet address: 200440
cpkt address: 230440
cpkt address: 1f8440
Setting Dirty, Packet address: 1f8440
cpkt address: 200480
Setting Dirty, Packet address: 200480
cpkt address: 22c480
cpkt address: 2184c0
Setting Dirty, Packet address: 2184c0
cpkt address: 2304c0
cpkt address: 1f8500
Setting Dirty, Packet address: 1f8500
cpkt address: 234500
cpkt address: 234540
cpkt address: 200580
Setting Dirty, Packet address: 200580
cpkt address: 234580
cpkt address: 2105c0
Setting Dirty, Packet address: 2105c0
cpkt address: 2305c0
cpkt address: 1e8600
Setting Dirty, Packet address: 1e8600
cpkt address: 234600
cpkt address: 1f8640
Setting Dirty, Packet address: 1f8640
cpkt address: 234640
cpkt address: 1d8680
Setting Dirty, Packet address: 1d8680
cpkt address: 228680
cpkt address: 2306c0
Setting Dirty, Packet address: 2306c0
cpkt address: 2286c0
cpkt address: 1e8700
Setting Dirty, Packet address: 1e8700
cpkt address: 230700
cpkt address: 1d0740
Setting Dirty, Packet address: 1d0740
cpkt address: 234740
cpkt address: 208780
Setting Dirty, Packet address: 208780
cpkt address: 230780
cpkt address: 2007c0
Setting Dirty, Packet address: 2007c0
cpkt address: 2307c0
cpkt address: 230800
Setting Dirty, Packet address: 230800
cpkt address: 22c800
cpkt address: 224800
Setting Dirty, Packet address: 224800
cpkt address: 1e8840
Setting Dirty, Packet address: 1e8840
cpkt address: 234840
cpkt address: 210880
Setting Dirty, Packet address: 210880
cpkt address: 234880
cpkt address: 2088c0
Setting Dirty, Packet address: 2088c0
cpkt address: 2348c0
cpkt address: 210900
Setting Dirty, Packet address: 210900
cpkt address: 234900
cpkt address: 1a0940
Setting Dirty, Packet address: 1a0940
cpkt address: 234940
cpkt address: 190980
Setting Dirty, Packet address: 190980
cpkt address: 234980
cpkt address: 2109c0
Setting Dirty, Packet address: 2109c0
cpkt address: 2349c0
cpkt address: 1e8a00
Setting Dirty, Packet address: 1e8a00
cpkt address: 230a00
cpkt address: 168a40
Setting Dirty, Packet address: 168a40
cpkt address: 234a40
cpkt address: 200a80
Setting Dirty, Packet address: 200a80
cpkt address: 230a80
cpkt address: 1f8ac0
Setting Dirty, Packet address: 1f8ac0
cpkt address: 234ac0
cpkt address: 230b00
Setting Dirty, Packet address: 230b00
cpkt address: 22cb00
cpkt address: 1b4b00
Setting Dirty, Packet address: 1b4b00
cpkt address: 230b40
cpkt address: 1f8b40
Setting Dirty, Packet address: 1f8b40
cpkt address: 208b80
Setting Dirty, Packet address: 208b80
cpkt address: 234b80
cpkt address: 1c8bc0
Setting Dirty, Packet address: 1c8bc0
cpkt address: 230bc0
cpkt address: 210c00
Setting Dirty, Packet address: 210c00
cpkt address: 230c00
cpkt address: 218c40
Setting Dirty, Packet address: 218c40
cpkt address: 234c40
cpkt address: 208c80
Setting Dirty, Packet address: 208c80
cpkt address: 230c80
cpkt address: 228cc0
Setting Dirty, Packet address: 228cc0
cpkt address: 230cc0
cpkt address: 1d8d00
Setting Dirty, Packet address: 1d8d00
cpkt address: 2cd00
cpkt address: 234d00
cpkt address: 218d40
Setting Dirty, Packet address: 218d40
cpkt address: 234d40
cpkt address: 200d80
Setting Dirty, Packet address: 200d80
cpkt address: 230d80
cpkt address: 230dc0
Setting Dirty, Packet address: 230dc0
cpkt address: 228dc0
cpkt address: 218e00
Setting Dirty, Packet address: 218e00
cpkt address: 234e00
cpkt address: 228e40
Setting Dirty, Packet address: 228e40
cpkt address: 234e40
cpkt address: 218e80
Setting Dirty, Packet address: 218e80
cpkt address: 234e80
cpkt address: 1f0ec0
Setting Dirty, Packet address: 1f0ec0
cpkt address: 234ec0
cpkt address: 198f00
Setting Dirty, Packet address: 198f00
cpkt address: 234f00
cpkt address: 230f40
cpkt address: 210f40
Setting Dirty, Packet address: 210f40
cpkt address: 234f80
cpkt address: 200fc0
Setting Dirty, Packet address: 200fc0
cpkt address: 228fc0
cpkt address: 1d9000
Setting Dirty, Packet address: 1d9000
cpkt address: 235000
cpkt address: 211040
Setting Dirty, Packet address: 211040
cpkt address: 225040
cpkt address: 205040
Setting Dirty, Packet address: 205040
cpkt address: 219080
Setting Dirty, Packet address: 219080
cpkt address: 235080
cpkt address: 1c10c0
Setting Dirty, Packet address: 1c10c0
cpkt address: 2350c0
cpkt address: 211100
Setting Dirty, Packet address: 211100
cpkt address: 235100
cpkt address: 231140
cpkt address: 1e9140
Setting Dirty, Packet address: 1e9140
cpkt address: 1c1180
Setting Dirty, Packet address: 1c1180
cpkt address: 235180
cpkt address: 2111c0
Setting Dirty, Packet address: 2111c0
cpkt address: 2311c0
cpkt address: 199200
Setting Dirty, Packet address: 199200
cpkt address: 235200
cpkt address: 229240
Setting Dirty, Packet address: 229240
cpkt address: 231240
cpkt address: 1e9280
Setting Dirty, Packet address: 1e9280
cpkt address: 235280
cpkt address: 2192c0
Setting Dirty, Packet address: 2192c0
cpkt address: 2312c0
cpkt address: 235300
cpkt address: 199340
Setting Dirty, Packet address: 199340
cpkt address: 235340
cpkt address: 79380
cpkt address: 221380
Setting Dirty, Packet address: 221380
cpkt address: 231380
cpkt address: b93c0
cpkt address: 2293c0
Setting Dirty, Packet address: 2293c0
cpkt address: 2353c0
cpkt address: 1f9400
cpkt address: 221400
Setting Dirty, Packet address: 221400
cpkt address: 235400
cpkt address: 1b9440
cpkt address: 221440
Setting Dirty, Packet address: 221440
cpkt address: 231440
cpkt address: 221480
Setting Dirty, Packet address: 221480
cpkt address: 235480
cpkt address: 2294c0
Setting Dirty, Packet address: 2294c0
cpkt address: 22d4c0
cpkt address: 2154c0
Setting Dirty, Packet address: 2154c0
cpkt address: 229500
Setting Dirty, Packet address: 229500
cpkt address: 235500
cpkt address: 235540
cpkt address: 1f9580
Setting Dirty, Packet address: 1f9580
cpkt address: 231580
cpkt address: 1f15c0
Setting Dirty, Packet address: 1f15c0
cpkt address: 22d5c0
cpkt address: 1a1600
Setting Dirty, Packet address: 1a1600
cpkt address: 235600
cpkt address: 1e9640
Setting Dirty, Packet address: 1e9640
cpkt address: 231640
cpkt address: 211680
Setting Dirty, Packet address: 211680
cpkt address: 229680
cpkt address: 1f16c0
Setting Dirty, Packet address: 1f16c0
cpkt address: 2356c0
cpkt address: 221700
Setting Dirty, Packet address: 221700
cpkt address: 231700
cpkt address: b9740
cpkt address: 179740
Setting Dirty, Packet address: 179740
cpkt address: 231740
cpkt address: 211780
Setting Dirty, Packet address: 211780
cpkt address: 215780
cpkt address: f97c0
cpkt address: 1997c0
Setting Dirty, Packet address: 1997c0
cpkt address: 2317c0
cpkt address: 1b9800
cpkt address: 219800
Setting Dirty, Packet address: 219800
cpkt address: 235800
cpkt address: 219840
Setting Dirty, Packet address: 219840
cpkt address: 235840
cpkt address: 211880
Setting Dirty, Packet address: 211880
cpkt address: 235880
cpkt address: 1d98c0
Setting Dirty, Packet address: 1d98c0
cpkt address: 2358c0
cpkt address: 235900
cpkt address: 231940
Setting Dirty, Packet address: 231940
cpkt address: 235940
cpkt address: 229980
Setting Dirty, Packet address: 229980
cpkt address: 235980
cpkt address: 2219c0
Setting Dirty, Packet address: 2219c0
cpkt address: 2359c0
cpkt address: 221a00
Setting Dirty, Packet address: 221a00
cpkt address: 231a00
cpkt address: 219a40
Setting Dirty, Packet address: 219a40
cpkt address: 235a40
cpkt address: 211a80
Setting Dirty, Packet address: 211a80
cpkt address: 22da80
cpkt address: 229ac0
cpkt address: 201ac0
Setting Dirty, Packet address: 201ac0
cpkt address: 229b00
cpkt address: 1e9b00
Setting Dirty, Packet address: 1e9b00
cpkt address: 1c9b40
Setting Dirty, Packet address: 1c9b40
cpkt address: 235b40
cpkt address: 1c1b80
Setting Dirty, Packet address: 1c1b80
cpkt address: 22db80
cpkt address: 171bc0
Setting Dirty, Packet address: 171bc0
cpkt address: 235bc0
cpkt address: 1d1c00
Setting Dirty, Packet address: 1d1c00
cpkt address: 221c00
cpkt address: 1e9c40
Setting Dirty, Packet address: 1e9c40
cpkt address: 235c40
cpkt address: 181c80
Setting Dirty, Packet address: 181c80
cpkt address: 231c80
cpkt address: 219cc0
Setting Dirty, Packet address: 219cc0
cpkt address: 235cc0
cpkt address: 221d00
Setting Dirty, Packet address: 221d00
cpkt address: 235d00
cpkt address: 231d40
cpkt address: 219d40
Setting Dirty, Packet address: 219d40
cpkt address: 235d80
cpkt address: 191dc0
Setting Dirty, Packet address: 191dc0
cpkt address: 229dc0
cpkt address: 209e00
Setting Dirty, Packet address: 209e00
cpkt address: 235e00
cpkt address: 211e40
Setting Dirty, Packet address: 211e40
cpkt address: 22de40
cpkt address: 221e80
Setting Dirty, Packet address: 221e80
cpkt address: 231e80
cpkt address: 1e9ec0
Setting Dirty, Packet address: 1e9ec0
cpkt address: 225ec0
cpkt address: 229f00
Setting Dirty, Packet address: 229f00
Evicting a random entry 
Regenerated address in the writebackRDBIEntry(): 1e9e00
Regenerated address in the writebackRDBIEntry(): 1e9e40
Regenerated address in the writebackRDBIEntry(): 1e9ec0
Regenerated address in the writebackRDBIEntry(): 1e9f00
Regenerated address in the writebackRDBIEntry(): 1e9f80
Regenerated address in the writebackRDBIEntry(): 1e9fc0
cpkt address: 231f00
cpkt address: 1e9e00
cpkt address: 1e9e40
cpkt address: 1e9ec0
cpkt address: 1e9f00
