Global frequency set at 1000000000000 ticks per second
      0: system.l2cache: Hey, I am a toy component. Glad to exist in 2022 xoxo
gem5 Simulator System.  https://www.gem5.org
gem5 is copyrighted software; use the --copyright option for details.

gem5 version 22.0.0.2
gem5 compiled Dec 23 2022 05:03:15
gem5 started Dec 23 2022 05:05:15
gem5 executing on v100-gpu-4, pid 16932
command line: build/X86/gem5.opt --debug-flag=Toy configs/learning_gem5/Toy/two_level.py configs/learning_gem5/Toy/add -n 1000 -t 10

Beginning simulation!
176576
174656
174912
174848
175616
217536
183104
228608
217792
218048
218496
174464
217920
177152
218368
176512
177216
171136
176576
7872
217088
217856
217152
228352
218176
171200
219072
176448
177856
179456
218240
174592
175296
174656
171712
171648
175360
175232
219264
174528
171648
177856
177280
218432
177408
174464
174464
174656
171712
219264
183232
249856
171328
171264
171392
171456
178816
178624
178560
177920
178688
183296
176064
175936
176000
177408
218304
177344
171520
176704
176832
176896
171648
177600
183360
243456
255936
174784
175168
171776
174912
171904
174720
174976
219200
219136
175616
176256
183488
183552
183616
183680
171072
183744
172096
176768
217216
228288
177920
243456
228864
222208
256448
217344
177856
251328
224320
8128
244224
244160
8256
182848
222336
281536
252672
174400
217280
228480
228608
217984
171648
177280
178752
217728
183232
175936
174400
228736
228800
429824
183424
252672
222080
228928
171136
229056
228992
249984
8256
8192
176576
176704
7872
176448
176896
177216
218432
243456
177344
174464
177152
218368
176512
177856
217792
217152
228352
218496
218048
171200
251392
251456
509056
525440
8192
176576
176704
7872
176448
176896
177216
218432
243456
177344
174464
177152
218368
176512
171136
177856
217088
217856
217792
217152
228352
218496
218048
171200
418496
507904
514560
507968
514624
508032
514688
508096
514752
508160
514816
508224
514880
508288
514944
508352
515008
508416
515072
508480
515136
508544
515200
508608
515264
508672
515328
508736
515392
508800
515456
508864
515520
508928
515584
508992
515648
509056
515712
509120
515776
509184
515840
509248
515904
509312
515968
509376
516032
509440
524288
509504
524352
509568
524416
509632
524480
509696
524544
509760
524608
509824
524672
509888
524736
509952
524800
510016
524864
510080
524928
510144
524992
510208
525056
510272
525120
510336
525184
510400
525248
510464
525312
510528
525376
510592
525440
510656
525504
510720
525568
510784
525632
510848
525696
510912
525760
510976
525824
511040
525888
511104
525952
511168
526016
511232
526080
511296
526144
511360
526208
511424
526272
511488
526336
511552
526400
511616
526464
511680
526528
511744
526592
511808
526656
511872
526720
507904
514560
507968
514624
508032
514688
508096
514752
508160
514816
508224
514880
508288
514944
508352
515008
508416
515072
508480
515136
508544
515200
508608
515264
508672
515328
508736
515392
508800
515456
508864
515520
508928
515584
508992
515648
509056
515712
509120
515776
509184
515840
509248
515904
509312
515968
509376
516032
509440
524288
509504
524352
509568
524416
509632
524480
509696
524544
509760
524608
509824
524672
509888
524736
509952
524800
510016
524864
510080
524928
510144
524992
510208
525056
510272
525120
510336
525184
510400
525248
510464
525312
510528
525376
510592
525440
510656
525504
510720
525568
510784
525632
510848
525696
510912
525760
510976
525824
511040
525888
511104
525952
511168
526016
511232
526080
511296
526144
511360
526208
511424
526272
511488
526336
511552
526400
511616
526464
511680
526528
511744
526592
511808
526656
511872
526720
507904
514560
507968
514624
508032
514688
508096
514752
508160
514816
508224
514880
508288
514944
508352
515008
508416
515072
508480
515136
508544
515200
508608
515264
508672
515328
508736
515392
508800
515456
508864
515520
508928
515584
508992
515648
509056
515712
509120
515776
509184
515840
509248
515904
509312
515968
509376
516032
509440
524288
509504
524352
509568
524416
509632
524480
509696
524544
509760
524608
509824
524672
509888
524736
509952
524800
510016
524864
510080
524928
510144
524992
510208
525056
510272
525120
510336
525184
510400
525248
510464
525312
510528
525376
510592
525440
510656
525504
510720
525568
510784
525632
510848
525696
510912
525760
510976
525824
511040
525888
511104
525952
511168
526016
511232
526080
511296
526144
511360
526208
511424
526272
511488
526336
511552
526400
511616
526464
511680
526528
511744
526592
511808
526656
511872
526720
507904
514560
507968
514624
508032
514688
508096
514752
508160
514816
508224
514880
508288
514944
508352
515008
508416
515072
508480
515136
508544
515200
508608
515264
508672
515328
508736
515392
508800
515456
508864
515520
508928
515584
508992
515648
509056
515712
509120
515776
509184
515840
509248
515904
509312
515968
509376
516032
509440
524288
509504
524352
509568
524416
509632
524480
509696
524544
509760
524608
509824
524672
509888
524736
509952
524800
510016
524864
510080
524928
510144
524992
510208
525056
510272
525120
510336
525184
510400
525248
510464
525312
510528
525376
510592
525440
510656
525504
510720
525568
510784
525632
510848
525696
510912
525760
510976
525824
511040
525888
511104
525952
511168
526016
511232
526080
511296
526144
511360
526208
511424
526272
511488
526336
511552
526400
511616
526464
511680
526528
511744
526592
511808
526656
511872
526720
507904
514560
507968
514624
508032
514688
508096
514752
508160
514816
508224
514880
508288
514944
508352
515008
508416
515072
508480
515136
508544
515200
508608
515264
508672
515328
508736
515392
508800
515456
508864
515520
508928
515584
508992
515648
509056
515712
509120
515776
509184
515840
509248
515904
509312
515968
509376
516032
509440
524288
509504
524352
509568
524416
509632
524480
509696
524544
509760
524608
509824
524672
509888
524736
509952
524800
510016
524864
510080
524928
510144
524992
510208
525056
510272
525120
510336
525184
510400
525248
510464
525312
510528
525376
510592
525440
510656
525504
510720
525568
510784
525632
510848
525696
510912
525760
510976
525824
511040
525888
511104
525952
511168
526016
511232
526080
511296
526144
511360
526208
511424
526272
511488
526336
511552
526400
511616
526464
511680
526528
511744
526592
511808
526656
511872
526720
507904
514560
507968
514624
508032
514688
508096
514752
508160
514816
508224
514880
508288
514944
508352
515008
508416
515072
508480
515136
508544
515200
508608
515264
508672
515328
508736
515392
508800
515456
508864
515520
508928
515584
508992
515648
509056
515712
509120
515776
509184
515840
509248
515904
509312
515968
509376
516032
509440
524288
509504
524352
509568
524416
509632
524480
509696
524544
509760
524608
509824
524672
509888
524736
509952
524800
510016
524864
510080
524928
510144
524992
510208
525056
510272
525120
510336
525184
510400
525248
510464
525312
510528
525376
510592
525440
510656
525504
510720
525568
510784
525632
510848
525696
510912
525760
510976
525824
511040
525888
511104
525952
511168
526016
511232
526080
511296
526144
511360
526208
511424
526272
511488
526336
511552
526400
511616
526464
511680
526528
511744
526592
511808
526656
511872
526720
507904
514560
507968
514624
508032
514688
508096
514752
508160
514816
508224
514880
508288
514944
508352
515008
508416
515072
508480
515136
508544
515200
508608
515264
508672
515328
508736
515392
508800
515456
508864
515520
508928
515584
508992
515648
509056
515712
509120
515776
509184
515840
509248
515904
509312
515968
509376
516032
509440
524288
509504
524352
509568
524416
509632
524480
509696
524544
509760
524608
509824
524672
509888
524736
509952
524800
510016
524864
510080
524928
510144
524992
510208
525056
510272
525120
510336
525184
510400
525248
510464
525312
510528
525376
510592
525440
510656
525504
510720
525568
510784
525632
510848
525696
510912
525760
510976
525824
511040
525888
511104
525952
511168
526016
511232
526080
511296
526144
511360
526208
511424
526272
511488
526336
511552
526400
511616
526464
511680
526528
511744
526592
511808
526656
511872
526720
507904
514560
507968
514624
508032
514688
508096
514752
508160
514816
508224
514880
508288
514944
508352
515008
508416
515072
508480
515136
508544
515200
508608
515264
508672
515328
508736
515392
508800
515456
508864
515520
508928
515584
508992
515648
509056
515712
509120
515776
509184
515840
509248
515904
509312
515968
509376
516032
509440
524288
509504
524352
509568
524416
509632
524480
509696
524544
509760
524608
509824
524672
509888
524736
509952
524800
510016
524864
510080
524928
510144
524992
510208
525056
510272
525120
510336
525184
510400
525248
510464
525312
510528
525376
510592
525440
510656
525504
510720
525568
510784
525632
510848
525696
510912
525760
510976
525824
511040
525888
511104
525952
511168
526016
511232
526080
511296
526144
511360
526208
511424
526272
511488
526336
511552
526400
511616
526464
511680
526528
511744
526592
511808
526656
511872
526720
507904
514560
507968
514624
508032
514688
508096
514752
508160
514816
508224
514880
508288
514944
508352
515008
508416
515072
508480
515136
508544
515200
508608
515264
508672
515328
508736
515392
508800
515456
508864
515520
508928
515584
508992
515648
509056
515712
509120
515776
509184
515840
509248
515904
509312
515968
509376
516032
509440
524288
509504
524352
509568
524416
509632
524480
509696
524544
509760
524608
509824
524672
509888
524736
509952
524800
510016
524864
510080
524928
510144
524992
510208
525056
510272
525120
510336
525184
510400
525248
510464
525312
510528
525376
510592
525440
510656
525504
510720
525568
510784
525632
510848
525696
510912
525760
510976
525824
511040
525888
511104
525952
511168
526016
511232
526080
511296
526144
511360
526208
511424
526272
511488
526336
511552
526400
511616
526464
511680
526528
511744
526592
511808
526656
511872
526720
507904
514560
507968
514624
508032
514688
508096
514752
508160
514816
508224
514880
508288
514944
508352
515008
508416
515072
508480
515136
508544
515200
508608
515264
508672
515328
508736
515392
508800
515456
508864
515520
508928
515584
508992
515648
509056
515712
509120
515776
509184
515840
509248
515904
509312
515968
509376
516032
509440
524288
509504
524352
509568
524416
509632
524480
509696
524544
509760
524608
509824
524672
509888
524736
509952
524800
510016
524864
510080
524928
510144
524992
510208
525056
510272
525120
510336
525184
510400
525248
510464
525312
510528
525376
510592
525440
510656
525504
510720
525568
510784
525632
510848
525696
510912
525760
510976
525824
511040
525888
511104
525952
511168
526016
511232
526080
511296
526144
511360
526208
511424
526272
511488
526336
511552
526400
511616
526464
511680
526528
511744
526592
511808
526656
511872
526720
8192
418496
243456
176576
176704
7872
176448
176896
177216
218432
177344
174464
177152
218368
176512
171136
177856
217088
217856
217792
217152
228352
218496
218048
171200
229184
222976
228928
243328
222912
222720
222848
227072
227008
227136
181568
229056
252672
228736
243392
427968
252800
221696
222080
252736
523776
250176
228800
429888
249984
228992
250240

418880
222208
257792
229120
The time taken is 1.641000 milliseconds
Introducing buffer overflow - Accessing a location beyond the range
The value written is: 4
177856
507904
514560
243392
251328
224320
174400
175936
172096
177920
178688
174592
175296
174528
217984
218304
176768
176640
171520
217344
217216
174784
174720
256192
222464
222592
252288
252224
227072
252096
Exiting @ tick 3363631000 because exiting with last active thread context
