Global frequency set at 1000000000000 ticks per second
      0: system.l2cache: Hey, I am a toy component. Glad to exist in 2022
gem5 Simulator System.  https://www.gem5.org
gem5 is copyrighted software; use the --copyright option for details.

gem5 version 22.0.0.2
gem5 compiled Dec 22 2022 13:08:25
gem5 started Dec 22 2022 13:11:34
gem5 executing on v100-gpu-4, pid 23828
command line: build/X86/gem5.opt --debug-flag=Toy configs/learning_gem5/Toy/two_level.py configs/learning_gem5/Toy/add -n 1 -t 10

Beginning simulation!

The time taken is 0.002000 milliseconds
Introducing buffer overflow - Accessing a location beyond the range
The value written is: 4
Exiting @ tick 865347000 because exiting with last active thread context
