Global frequency set at 1000000000000 ticks per second
Hey, I am a DBICache component + Deepanjali
Hey, I am a RDBI component
gem5 Simulator System.  https://www.gem5.org
gem5 is copyrighted software; use the --copyright option for details.

gem5 version 22.0.0.2
gem5 compiled Mar 13 2023 08:53:26
gem5 started Mar 13 2023 08:55:03
gem5 executing on v100-gpu-4, pid 24977
command line: build/X86/gem5.opt --stats-file =dbi.txt configs/learning_gem5/DebugDBI/DBICache/config.py test-benchmark/test -n 3000 -k 4 -t 1

Beginning simulation!
Packet address request from CPU: 15360
RDBI::isDirty() called
Packet address request from CPU: 183808
RDBI::isDirty() called
Packet address request from CPU: 18816
RDBI::isDirty() called
Packet address request from CPU: 183744
RDBI::isDirty() called
Packet address request from CPU: 18880
RDBI::isDirty() called
Packet address request from CPU: 171072
RDBI::isDirty() called
Packet address request from CPU: 171648
RDBI::isDirty() called
Packet address request from CPU: 172032
RDBI::isDirty() called
Packet address request from CPU: 174528
RDBI::isDirty() called
Packet address request from CPU: 18944
RDBI::isDirty() called
Packet address request from CPU: 19008
RDBI::isDirty() called
Packet address request from CPU: 174720
RDBI::isDirty() called
Packet address request from CPU: 174592
RDBI::isDirty() called
Packet address request from CPU: 19520
RDBI::isDirty() called
Packet address request from CPU: 19584
RDBI::isDirty() called
Packet address request from CPU: 19904
RDBI::isDirty() called
Packet address request from CPU: 175168
RDBI::isDirty() called
Packet address request from CPU: 174656
RDBI::isDirty() called
Packet address request from CPU: 171712
RDBI::isDirty() called
Packet address request from CPU: 171776
RDBI::isDirty() called
Packet address request from CPU: 174784
RDBI::isDirty() called
Packet address request from CPU: 171840
RDBI::isDirty() called
Packet address request from CPU: 19072
RDBI::isDirty() called
Packet address request from CPU: 174912
RDBI::isDirty() called
Packet address request from CPU: 174848
RDBI::isDirty() called
Packet address request from CPU: 171904
RDBI::isDirty() called
Packet address request from CPU: 174976
RDBI::isDirty() called
Packet address request from CPU: 19136
RDBI::isDirty() called
Packet address request from CPU: 19200
RDBI::isDirty() called
Packet address request from CPU: 19264
RDBI::isDirty() called
Packet address request from CPU: 19328
RDBI::isDirty() called
Packet address request from CPU: 19648
RDBI::isDirty() called
Packet address request from CPU: 19712
RDBI::isDirty() called
Packet address request from CPU: 14528
RDBI::isDirty() called
Packet address request from CPU: 19776
RDBI::isDirty() called
Packet address request from CPU: 171392
RDBI::isDirty() called
Packet address request from CPU: 14592
RDBI::isDirty() called
Packet address request from CPU: 171456
RDBI::isDirty() called
Packet address request from CPU: 14656
RDBI::isDirty() called
Packet address request from CPU: 14720
RDBI::isDirty() called
Packet address request from CPU: 14784
RDBI::isDirty() called
Packet address request from CPU: 171520
RDBI::isDirty() called
Packet address request from CPU: 19840
RDBI::isDirty() called
Packet address request from CPU: 13440
RDBI::isDirty() called
Packet address request from CPU: 137152
RDBI::isDirty() called
Packet address request from CPU: 19968
RDBI::isDirty() called
Packet address request from CPU: 171968
RDBI::isDirty() called
Packet address request from CPU: 13312
RDBI::isDirty() called
Packet address request from CPU: 13376
RDBI::isDirty() called
Packet address request from CPU: 14848
RDBI::isDirty() called
Packet address request from CPU: 13760
RDBI::isDirty() called
Packet address request from CPU: 13504
RDBI::isDirty() called
Packet address request from CPU: 13568
RDBI::isDirty() called
Packet address request from CPU: 14912
RDBI::isDirty() called
Packet address request from CPU: 19392
RDBI::isDirty() called
Packet address request from CPU: 175296
RDBI::isDirty() called
Packet address request from CPU: 183680
RDBI::isDirty() called
Packet address request from CPU: 60032
RDBI::isDirty() called
Packet address request from CPU: 12928
RDBI::isDirty() called
Packet address request from CPU: 60096
RDBI::isDirty() called
Packet address request from CPU: 175360
RDBI::isDirty() called
Packet address request from CPU: 19456
RDBI::isDirty() called
Packet address request from CPU: 171584
RDBI::isDirty() called
Packet address request from CPU: 174464
RDBI::isDirty() called
Packet address request from CPU: 116096
RDBI::isDirty() called
Packet address request from CPU: 183616
RDBI::isDirty() called
Packet address request from CPU: 116160
RDBI::isDirty() called
Packet address request from CPU: 171136
RDBI::isDirty() called
Packet address request from CPU: 176384
RDBI::isDirty() called
Packet address request from CPU: 183872
RDBI::isDirty() called
Packet address request from CPU: 116224
RDBI::isDirty() called
Packet address request from CPU: 171264
RDBI::isDirty() called
Packet address request from CPU: 171200
RDBI::isDirty() called
Packet address request from CPU: 116288
RDBI::isDirty() called
Packet address request from CPU: 183552
RDBI::isDirty() called
Packet address request from CPU: 116352
RDBI::isDirty() called
Packet address request from CPU: 116416
RDBI::isDirty() called
Packet address request from CPU: 139648
RDBI::isDirty() called
Packet address request from CPU: 139584
RDBI::isDirty() called
Packet address request from CPU: 116736
RDBI::isDirty() called
Packet address request from CPU: 183936
RDBI::isDirty() called
Packet address request from CPU: 139520
RDBI::isDirty() called
Packet address request from CPU: 116800
RDBI::isDirty() called
Packet address request from CPU: 116672
RDBI::isDirty() called
Packet address request from CPU: 184000
RDBI::isDirty() called
Packet address request from CPU: 184064
RDBI::isDirty() called
Packet address request from CPU: 184128
RDBI::isDirty() called
Packet address request from CPU: 116608
RDBI::isDirty() called
Packet address request from CPU: 184192
RDBI::isDirty() called
Packet address request from CPU: 116992
RDBI::isDirty() called
Packet address request from CPU: 116480
RDBI::isDirty() called
Packet address request from CPU: 116544
RDBI::isDirty() called
Packet address request from CPU: 119808
RDBI::isDirty() called
Packet address request from CPU: 176320
RDBI::isDirty() called
Packet address request from CPU: 119872
RDBI::isDirty() called
Packet address request from CPU: 116864
RDBI::isDirty() called
Packet address request from CPU: 114752
RDBI::isDirty() called
Packet address request from CPU: 183488
RDBI::isDirty() called
Packet address request from CPU: 114816
RDBI::isDirty() called
Packet address request from CPU: 114880
RDBI::isDirty() called
Packet address request from CPU: 114944
RDBI::isDirty() called
Packet address request from CPU: 115008
RDBI::isDirty() called
Packet address request from CPU: 171328
RDBI::isDirty() called
Packet address request from CPU: 119936
RDBI::isDirty() called
Packet address request from CPU: 176256
RDBI::isDirty() called
Packet address request from CPU: 116928
RDBI::isDirty() called
Packet address request from CPU: 20928
RDBI::isDirty() called
Packet address request from CPU: 20992
RDBI::isDirty() called
Packet address request from CPU: 183360
RDBI::isDirty() called
Packet address request from CPU: 176000
RDBI::isDirty() called
Packet address request from CPU: 175936
RDBI::isDirty() called
Packet address request from CPU: 21056
RDBI::isDirty() called
Packet address request from CPU: 183424
RDBI::isDirty() called
Packet address request from CPU: 21120
RDBI::isDirty() called
Packet address request from CPU: 183296
RDBI::isDirty() called
Packet address request from CPU: 117888
RDBI::isDirty() called
Packet address request from CPU: 117952
RDBI::isDirty() called
Packet address request from CPU: 21248
RDBI::isDirty() called
Packet address request from CPU: 170944
RDBI::isDirty() called
Packet address request from CPU: 21440
RDBI::isDirty() called
Packet address request from CPU: 22016
RDBI::isDirty() called
Packet address request from CPU: 22080
RDBI::isDirty() called
Packet address request from CPU: 60352
RDBI::isDirty() called
Packet address request from CPU: 183232
RDBI::isDirty() called
Packet address request from CPU: 130880
RDBI::isDirty() called
Packet address request from CPU: 141376
RDBI::isDirty() called
Packet address request from CPU: 60416
RDBI::isDirty() called
Packet address request from CPU: 60928
RDBI::isDirty() called
Packet address request from CPU: 60992
RDBI::isDirty() called
Packet address request from CPU: 14976
RDBI::isDirty() called
Packet address request from CPU: 118400
RDBI::isDirty() called
Packet address request from CPU: 118336
RDBI::isDirty() called
Packet address request from CPU: 118080
RDBI::isDirty() called
Packet address request from CPU: 183168
RDBI::isDirty() called
Packet address request from CPU: 118144
RDBI::isDirty() called
Packet address request from CPU: 118272
RDBI::isDirty() called
Packet address request from CPU: 60480
RDBI::isDirty() called
Packet address request from CPU: 176512
RDBI::isDirty() called
Packet address request from CPU: 177152
RDBI::isDirty() called
Packet address request from CPU: 134848
RDBI::isDirty() called
Packet address request from CPU: 177856
RDBI::isDirty() called
Packet address request from CPU: 134912
RDBI::isDirty() called
Packet address request from CPU: 134976
RDBI::isDirty() called
Packet address request from CPU: 177216
RDBI::isDirty() called
Packet address request from CPU: 60544
RDBI::isDirty() called
Packet address request from CPU: 176448
RDBI::isDirty() called
Packet address request from CPU: 177408
RDBI::isDirty() called
Packet address request from CPU: 60608
RDBI::isDirty() called
Packet address request from CPU: 177600
RDBI::isDirty() called
Packet address request from CPU: 177664
RDBI::isDirty() called
Packet address request from CPU: 177728
RDBI::isDirty() called
Packet address request from CPU: 177792
RDBI::isDirty() called
Packet address request from CPU: 177344
RDBI::isDirty() called
Packet address request from CPU: 60672
RDBI::isDirty() called
Packet address request from CPU: 172096
RDBI::isDirty() called
Packet address request from CPU: 61184
RDBI::isDirty() called
Packet address request from CPU: 61248
RDBI::isDirty() called
Packet address request from CPU: 60736
RDBI::isDirty() called
Packet address request from CPU: 60800
RDBI::isDirty() called
Packet address request from CPU: 22144
RDBI::isDirty() called
Packet address request from CPU: 60160
RDBI::isDirty() called
Packet address request from CPU: 60224
RDBI::isDirty() called
Packet address request from CPU: 15488
RDBI::isDirty() called
Packet address request from CPU: 174400
RDBI::isDirty() called
Packet address request from CPU: 60288
RDBI::isDirty() called
Packet address request from CPU: 177280
RDBI::isDirty() called
Packet address request from CPU: 22208
RDBI::isDirty() called
Packet address request from CPU: 22272
RDBI::isDirty() called
Packet address request from CPU: 64
RDBI::isDirty() called
Packet address request from CPU: 24512
RDBI::isDirty() called
Packet address request from CPU: 24704
RDBI::isDirty() called
Packet address request from CPU: 128
RDBI::isDirty() called
Packet address request from CPU: 176128
RDBI::isDirty() called
Packet address request from CPU: 24576
RDBI::isDirty() called
Packet address request from CPU: 192
RDBI::isDirty() called
Packet address request from CPU: 24640
RDBI::isDirty() called
Packet address request from CPU: 256
RDBI::isDirty() called
Packet address request from CPU: 24832
RDBI::isDirty() called
Packet address request from CPU: 320
RDBI::isDirty() called
Packet address request from CPU: 384
RDBI::isDirty() called
Packet address request from CPU: 22336
RDBI::isDirty() called
Packet address request from CPU: 448
RDBI::isDirty() called
Packet address request from CPU: 512
RDBI::isDirty() called
Packet address request from CPU: 24448
RDBI::isDirty() called
Packet address request from CPU: 22400
RDBI::isDirty() called
Packet address request from CPU: 22464
RDBI::isDirty() called
Packet address request from CPU: 177536
RDBI::isDirty() called
Packet address request from CPU: 22528
RDBI::isDirty() called
Packet address request from CPU: 125568
RDBI::isDirty() called
Packet address request from CPU: 125632
RDBI::isDirty() called
Packet address request from CPU: 125696
RDBI::isDirty() called
Packet address request from CPU: 140480
RDBI::isDirty() called
Packet address request from CPU: 129408
RDBI::isDirty() called
Packet address request from CPU: 14208
RDBI::isDirty() called
Packet address request from CPU: 129472
RDBI::isDirty() called
Packet address request from CPU: 130688
RDBI::isDirty() called
Packet address request from CPU: 130752
RDBI::isDirty() called
Packet address request from CPU: 22592
RDBI::isDirty() called
Packet address request from CPU: 176064
RDBI::isDirty() called
Packet address request from CPU: 22656
RDBI::isDirty() called
Packet address request from CPU: 7680
RDBI::isDirty() called
Packet address request from CPU: 22720
RDBI::isDirty() called
Packet address request from CPU: 176640
RDBI::isDirty() called
Packet address request from CPU: 7744
RDBI::isDirty() called
Packet address request from CPU: 176704
RDBI::isDirty() called
Packet address request from CPU: 176768
RDBI::isDirty() called
Packet address request from CPU: 7808
RDBI::isDirty() called
Packet address request from CPU: 22784
RDBI::isDirty() called
Packet address request from CPU: 24896
RDBI::isDirty() called
Packet address request from CPU: 24960
RDBI::isDirty() called
Packet address request from CPU: 25024
RDBI::isDirty() called
Packet address request from CPU: 176576
RDBI::isDirty() called
Packet address request from CPU: 7872
RDBI::isDirty() called
Packet address request from CPU: 7936
RDBI::isDirty() called
Packet address request from CPU: 8000
RDBI::isDirty() called
Packet address request from CPU: 176832
RDBI::isDirty() called
Packet address request from CPU: 8064
RDBI::isDirty() called
Packet address request from CPU: 176896
RDBI::isDirty() called
Packet address request from CPU: 22912
RDBI::isDirty() called
Packet address request from CPU: 22976
RDBI::isDirty() called
Packet address request from CPU: 23040
RDBI::isDirty() called
Packet address request from CPU: 23104
RDBI::isDirty() called
Packet address request from CPU: 640
RDBI::isDirty() called
Packet address request from CPU: 23168
RDBI::isDirty() called
Packet address request from CPU: 177920
RDBI::isDirty() called
Packet address request from CPU: 178624
RDBI::isDirty() called
Packet address request from CPU: 179072
RDBI::isDirty() called
Packet address request from CPU: 179008
RDBI::isDirty() called
Packet address request from CPU: 178688
RDBI::isDirty() called
Packet address request from CPU: 178880
RDBI::isDirty() called
Packet address request from CPU: 178752
RDBI::isDirty() called
Packet address request from CPU: 178816
RDBI::isDirty() called
Packet address request from CPU: 61056
RDBI::isDirty() called
Packet address request from CPU: 61120
RDBI::isDirty() called
Packet address request from CPU: 184320
RDBI::isDirty() called
Packet address request from CPU: 178560
RDBI::isDirty() called
Packet address request from CPU: 23232
RDBI::isDirty() called
Packet address request from CPU: 23296
RDBI::isDirty() called
Packet address request from CPU: 23360
RDBI::isDirty() called
Packet address request from CPU: 23424
RDBI::isDirty() called
Packet address request from CPU: 23488
RDBI::isDirty() called
Packet address request from CPU: 177984
RDBI::isDirty() called
Packet address request from CPU: 30976
RDBI::isDirty() called
Packet address request from CPU: 31040
RDBI::isDirty() called
Packet address request from CPU: 23616
RDBI::isDirty() called
Packet address request from CPU: 23680
RDBI::isDirty() called
Packet address request from CPU: 23744
RDBI::isDirty() called
Packet address request from CPU: 23808
RDBI::isDirty() called
Packet address request from CPU: 178112
RDBI::isDirty() called
Packet address request from CPU: 23872
RDBI::isDirty() called
Packet address request from CPU: 178368
RDBI::isDirty() called
Packet address request from CPU: 23936
RDBI::isDirty() called
Packet address request from CPU: 24000
RDBI::isDirty() called
Packet address request from CPU: 178176
RDBI::isDirty() called
Packet address request from CPU: 24064
RDBI::isDirty() called
Packet address request from CPU: 178240
RDBI::isDirty() called
Packet address request from CPU: 24128
RDBI::isDirty() called
Packet address request from CPU: 24192
RDBI::isDirty() called
Packet address request from CPU: 178048
RDBI::isDirty() called
Packet address request from CPU: 24256
RDBI::isDirty() called
Packet address request from CPU: 24320
RDBI::isDirty() called
Packet address request from CPU: 24384
RDBI::isDirty() called
Packet address request from CPU: 117440
RDBI::isDirty() called
Packet address request from CPU: 117504
RDBI::isDirty() called
Packet address request from CPU: 182784
RDBI::isDirty() called
Packet address request from CPU: 117696
RDBI::isDirty() called
Packet address request from CPU: 124160
RDBI::isDirty() called
Packet address request from CPU: 182976
RDBI::isDirty() called
Packet address request from CPU: 117760
RDBI::isDirty() called
Packet address request from CPU: 117632
RDBI::isDirty() called
Packet address request from CPU: 26560
RDBI::isDirty() called
Packet address request from CPU: 26624
RDBI::isDirty() called
Packet address request from CPU: 46336
RDBI::isDirty() called
Packet address request from CPU: 46400
RDBI::isDirty() called
Packet address request from CPU: 74240
RDBI::isDirty() called
Packet address request from CPU: 183104
RDBI::isDirty() called
Packet address request from CPU: 183040
RDBI::isDirty() called
Packet address request from CPU: 74304
RDBI::isDirty() called
Packet address request from CPU: 74368
RDBI::isDirty() called
Packet address request from CPU: 74880
RDBI::isDirty() called
Packet address request from CPU: 74944
RDBI::isDirty() called
Packet address request from CPU: 123648
RDBI::isDirty() called
Packet address request from CPU: 123712
RDBI::isDirty() called
Packet address request from CPU: 76032
RDBI::isDirty() called
Packet address request from CPU: 76096
RDBI::isDirty() called
Packet address request from CPU: 74816
RDBI::isDirty() called
Packet address request from CPU: 75008
RDBI::isDirty() called
Packet address request from CPU: 75072
RDBI::isDirty() called
Packet address request from CPU: 75968
RDBI::isDirty() called
Packet address request from CPU: 76160
RDBI::isDirty() called
Packet address request from CPU: 76224
RDBI::isDirty() called
Packet address request from CPU: 134272
RDBI::isDirty() called
Packet address request from CPU: 142592
RDBI::isDirty() called
Packet address request from CPU: 134336
RDBI::isDirty() called
Packet address request from CPU: 134400
RDBI::isDirty() called
Packet address request from CPU: 76288
RDBI::isDirty() called
Packet address request from CPU: 46464
RDBI::isDirty() called
Packet address request from CPU: 179136
RDBI::isDirty() called
Packet address request from CPU: 46528
RDBI::isDirty() called
Packet address request from CPU: 179200
RDBI::isDirty() called
Packet address request from CPU: 46592
RDBI::isDirty() called
Packet address request from CPU: 134016
RDBI::isDirty() called
Packet address request from CPU: 134080
RDBI::isDirty() called
Packet address request from CPU: 134208
RDBI::isDirty() called
Packet address request from CPU: 46656
RDBI::isDirty() called
Packet address request from CPU: 179264
RDBI::isDirty() called
Packet address request from CPU: 138432
RDBI::isDirty() called
Packet address request from CPU: 138496
RDBI::isDirty() called
Packet address request from CPU: 46720
RDBI::isDirty() called
Packet address request from CPU: 179328
RDBI::isDirty() called
Packet address request from CPU: 179392
RDBI::isDirty() called
Packet address request from CPU: 179456
RDBI::isDirty() called
Packet address request from CPU: 176192
RDBI::isDirty() called
Packet address request from CPU: 46784
RDBI::isDirty() called
Packet address request from CPU: 47168
RDBI::isDirty() called
Packet address request from CPU: 47232
RDBI::isDirty() called
Packet address request from CPU: 46848
RDBI::isDirty() called
Packet address request from CPU: 47104
RDBI::isDirty() called
Packet address request from CPU: 82048
RDBI::isDirty() called
Packet address request from CPU: 82176
RDBI::isDirty() called
Packet address request from CPU: 82112
RDBI::isDirty() called
Packet address request from CPU: 26688
RDBI::isDirty() called
Packet address request from CPU: 26752
RDBI::isDirty() called
Packet address request from CPU: 12288
RDBI::isDirty() called
Packet address request from CPU: 26816
RDBI::isDirty() called
Packet address request from CPU: 175232
RDBI::isDirty() called
Packet address request from CPU: 12672
RDBI::isDirty() called
Packet address request from CPU: 26880
RDBI::isDirty() called
Packet address request from CPU: 175616
RDBI::isDirty() called
Packet address request from CPU: 26944
RDBI::isDirty() called
Packet address request from CPU: 90752
RDBI::isDirty() called
Packet address request from CPU: 27008
RDBI::isDirty() called
Packet address request from CPU: 27072
RDBI::isDirty() called
Packet address request from CPU: 27136
RDBI::isDirty() called
Packet address request from CPU: 69568
RDBI::isDirty() called
Packet address request from CPU: 69632
RDBI::isDirty() called
Packet address request from CPU: 69696
RDBI::isDirty() called
Packet address request from CPU: 73600
RDBI::isDirty() called
Packet address request from CPU: 69760
RDBI::isDirty() called
Packet address request from CPU: 69824
RDBI::isDirty() called
Packet address request from CPU: 69888
RDBI::isDirty() called
Packet address request from CPU: 69952
RDBI::isDirty() called
Packet address request from CPU: 72832
RDBI::isDirty() called
Packet address request from CPU: 72896
RDBI::isDirty() called
Packet address request from CPU: 74176
RDBI::isDirty() called
Packet address request from CPU: 70016
RDBI::isDirty() called
Packet address request from CPU: 70080
RDBI::isDirty() called
Packet address request from CPU: 125056
RDBI::isDirty() called
Packet address request from CPU: 960
RDBI::isDirty() called
Packet address request from CPU: 125120
RDBI::isDirty() called
Packet address request from CPU: 70144
RDBI::isDirty() called
Packet address request from CPU: 79104
RDBI::isDirty() called
Packet address request from CPU: 79168
RDBI::isDirty() called
Packet address request from CPU: 182656
RDBI::isDirty() called
Packet address request from CPU: 182720
RDBI::isDirty() called
Packet address request from CPU: 182592
RDBI::isDirty() called
Packet address request from CPU: 79232
RDBI::isDirty() called
Packet address request from CPU: 124288
RDBI::isDirty() called
Packet address request from CPU: 124352
RDBI::isDirty() called
Packet address request from CPU: 68480
RDBI::isDirty() called
Packet address request from CPU: 68544
RDBI::isDirty() called
Packet address request from CPU: 47616
RDBI::isDirty() called
Packet address request from CPU: 182528
RDBI::isDirty() called
Packet address request from CPU: 181568
RDBI::isDirty() called
Packet address request from CPU: 181632
RDBI::isDirty() called
Packet address request from CPU: 47680
RDBI::isDirty() called
Packet address request from CPU: 47744
RDBI::isDirty() called
Packet address request from CPU: 84416
RDBI::isDirty() called
Packet address request from CPU: 140544
RDBI::isDirty() called
Packet address request from CPU: 130368
RDBI::isDirty() called
Packet address request from CPU: 130432
RDBI::isDirty() called
Packet address request from CPU: 84480
RDBI::isDirty() called
Packet address request from CPU: 47808
RDBI::isDirty() called
Packet address request from CPU: 47872
RDBI::isDirty() called
Packet address request from CPU: 47936
RDBI::isDirty() called
Packet address request from CPU: 48000
RDBI::isDirty() called
Packet address request from CPU: 181696
RDBI::isDirty() called
Packet address request from CPU: 48448
RDBI::isDirty() called
Packet address request from CPU: 48512
RDBI::isDirty() called
Packet address request from CPU: 48832
RDBI::isDirty() called
Packet address request from CPU: 48896
RDBI::isDirty() called
Packet address request from CPU: 49024
RDBI::isDirty() called
Packet address request from CPU: 48960
RDBI::isDirty() called
Packet address request from CPU: 49792
RDBI::isDirty() called
Packet address request from CPU: 49856
RDBI::isDirty() called
Packet address request from CPU: 50304
RDBI::isDirty() called
Packet address request from CPU: 48576
RDBI::isDirty() called
Packet address request from CPU: 48640
RDBI::isDirty() called
Packet address request from CPU: 49472
RDBI::isDirty() called
Packet address request from CPU: 49536
RDBI::isDirty() called
Packet address request from CPU: 110784
RDBI::isDirty() called
Packet address request from CPU: 181504
RDBI::isDirty() called
Packet address request from CPU: 111360
RDBI::isDirty() called
Packet address request from CPU: 111424
RDBI::isDirty() called
Packet address request from CPU: 181440
RDBI::isDirty() called
Packet address request from CPU: 83712
RDBI::isDirty() called
Packet address request from CPU: 83776
RDBI::isDirty() called
Packet address request from CPU: 181248
RDBI::isDirty() called
Packet address request from CPU: 123584
RDBI::isDirty() called
Packet address request from CPU: 123456
RDBI::isDirty() called
Packet address request from CPU: 181312
RDBI::isDirty() called
Packet address request from CPU: 83840
RDBI::isDirty() called
Packet address request from CPU: 123840
RDBI::isDirty() called
Packet address request from CPU: 123904
RDBI::isDirty() called
Packet address request from CPU: 181184
RDBI::isDirty() called
Packet address request from CPU: 123968
RDBI::isDirty() called
Packet address request from CPU: 132672
RDBI::isDirty() called
Packet address request from CPU: 188416
RDBI::isDirty() called
Packet address request from CPU: 132736
RDBI::isDirty() called
Packet address request from CPU: 143808
RDBI::isDirty() called
Packet address request from CPU: 132800
RDBI::isDirty() called
Packet address request from CPU: 132864
RDBI::isDirty() called
Packet address request from CPU: 132928
RDBI::isDirty() called
Packet address request from CPU: 111488
RDBI::isDirty() called
Packet address request from CPU: 111552
RDBI::isDirty() called
Packet address request from CPU: 194624
RDBI::isDirty() called
Packet address request from CPU: 143872
RDBI::isDirty() called
Packet address request from CPU: 110848
RDBI::isDirty() called
Packet address request from CPU: 142628
RDBI::isDirty() called
Packet address request from CPU: 142629
RDBI::isDirty() called
Packet address request from CPU: 142630
RDBI::isDirty() called
Packet address request from CPU: 142631
RDBI::isDirty() called
Packet address request from CPU: 142632
RDBI::isDirty() called
Packet address request from CPU: 142633
RDBI::isDirty() called
Packet address request from CPU: 142634
RDBI::isDirty() called
Packet address request from CPU: 142635
RDBI::isDirty() called
Packet address request from CPU: 142636
RDBI::isDirty() called
Packet address request from CPU: 142637
RDBI::isDirty() called
Packet address request from CPU: 142638
RDBI::isDirty() called
Packet address request from CPU: 142639
RDBI::isDirty() called
Packet address request from CPU: 142640
RDBI::isDirty() called
Packet address request from CPU: 142641
RDBI::isDirty() called
Packet address request from CPU: 142642
RDBI::isDirty() called
Packet address request from CPU: 142643
RDBI::isDirty() called
Packet address request from CPU: 142644
RDBI::isDirty() called
Packet address request from CPU: 142645
RDBI::isDirty() called
Packet address request from CPU: 142646
RDBI::isDirty() called
Packet address request from CPU: 110912
RDBI::isDirty() called
Packet address request from CPU: 196800
RDBI::isDirty() called
Packet address request from CPU: 110976
RDBI::isDirty() called
Packet address request from CPU: 110528
RDBI::isDirty() called
Packet address request from CPU: 203776
RDBI::isDirty() called
Packet address request from CPU: 110720
RDBI::isDirty() called
Packet address request from CPU: 206016
RDBI::isDirty() called
Packet address request from CPU: 212608
RDBI::isDirty() called
Packet address request from CPU: 208640
RDBI::isDirty() called
Packet address request from CPU: 216128
RDBI::isDirty() called
Packet address request from CPU: 207360
RDBI::isDirty() called
Packet address request from CPU: 220416
RDBI::isDirty() called
Packet address request from CPU: 206656
RDBI::isDirty() called
Packet address request from CPU: 218240
RDBI::isDirty() called
Packet address request from CPU: 206336
RDBI::isDirty() called
Packet address request from CPU: 217408
RDBI::isDirty() called
Packet address request from CPU: 206528
RDBI::isDirty() called
Packet address request from CPU: 217792
RDBI::isDirty() called
Packet address request from CPU: 206400
RDBI::isDirty() called
Packet address request from CPU: 217600
RDBI::isDirty() called
Packet address request from CPU: 206464
RDBI::isDirty() called
Packet address request from CPU: 217664
RDBI::isDirty() called
Packet address request from CPU: 110592
RDBI::isDirty() called
Packet address request from CPU: 110656
RDBI::isDirty() called
Packet address request from CPU: 111040
RDBI::isDirty() called
Packet address request from CPU: 111104
RDBI::isDirty() called
Packet address request from CPU: 111168
RDBI::isDirty() called
Packet address request from CPU: 112576
RDBI::isDirty() called
Packet address request from CPU: 111936
RDBI::isDirty() called
Packet address request from CPU: 112000
RDBI::isDirty() called
Packet address request from CPU: 112064
RDBI::isDirty() called
Packet address request from CPU: 130944
RDBI::isDirty() called
Packet address request from CPU: 217728
RDBI::isDirty() called
Packet address request from CPU: 131008
RDBI::isDirty() called
Packet address request from CPU: 112128
RDBI::isDirty() called
Packet address request from CPU: 181376
RDBI::isDirty() called
Packet address request from CPU: 135040
RDBI::isDirty() called
Packet address request from CPU: 135168
RDBI::isDirty() called
Packet address request from CPU: 130816
RDBI::isDirty() called
Packet address request from CPU: 179520
RDBI::isDirty() called
Packet address request from CPU: 135104
RDBI::isDirty() called
Packet address request from CPU: 49600
RDBI::isDirty() called
Packet address request from CPU: 34624
RDBI::isDirty() called
Packet address request from CPU: 34688
RDBI::isDirty() called
Packet address request from CPU: 34752
RDBI::isDirty() called
Packet address request from CPU: 34816
RDBI::isDirty() called
Packet address request from CPU: 153600
RDBI::isDirty() called
Packet address request from CPU: 35712
RDBI::isDirty() called
Packet address request from CPU: 35776
RDBI::isDirty() called
Packet address request from CPU: 34880
RDBI::isDirty() called
Packet address request from CPU: 181760
RDBI::isDirty() called
Packet address request from CPU: 34944
RDBI::isDirty() called
Packet address request from CPU: 35008
RDBI::isDirty() called
Packet address request from CPU: 181824
RDBI::isDirty() called
Packet address request from CPU: 181888
RDBI::isDirty() called
Packet address request from CPU: 181952
RDBI::isDirty() called
Packet address request from CPU: 182016
RDBI::isDirty() called
Packet address request from CPU: 182080
RDBI::isDirty() called
Packet address request from CPU: 35072
RDBI::isDirty() called
Packet address request from CPU: 35136
RDBI::isDirty() called
Packet address request from CPU: 182336
RDBI::isDirty() called
Packet address request from CPU: 182400
RDBI::isDirty() called
Packet address request from CPU: 35200
RDBI::isDirty() called
Packet address request from CPU: 48704
RDBI::isDirty() called
Packet address request from CPU: 48768
RDBI::isDirty() called
Packet address request from CPU: 48128
RDBI::isDirty() called
Packet address request from CPU: 48192
RDBI::isDirty() called
Packet address request from CPU: 37696
RDBI::isDirty() called
Packet address request from CPU: 37760
RDBI::isDirty() called
Packet address request from CPU: 37824
RDBI::isDirty() called
Packet address request from CPU: 37888
RDBI::isDirty() called
Packet address request from CPU: 175424
RDBI::isDirty() called
Packet address request from CPU: 38080
RDBI::isDirty() called
Packet address request from CPU: 38144
RDBI::isDirty() called
Packet address request from CPU: 181120
RDBI::isDirty() called
Packet address request from CPU: 118208
RDBI::isDirty() called
Packet address request from CPU: 181056
RDBI::isDirty() called
Packet address request from CPU: 221184
RDBI::isDirty() called
Packet address request from CPU: 221888
RDBI::isDirty() called
Packet address request from CPU: 222336
RDBI::isDirty() called
Packet address request from CPU: 222272
RDBI::isDirty() called
Packet address request from CPU: 221952
RDBI::isDirty() called
Packet address request from CPU: 222144
RDBI::isDirty() called
Packet address request from CPU: 222016
RDBI::isDirty() called
Packet address request from CPU: 222080
RDBI::isDirty() called
Packet address request from CPU: 134464
RDBI::isDirty() called
Packet address request from CPU: 134528
RDBI::isDirty() called
Packet address request from CPU: 134592
RDBI::isDirty() called
Packet address request from CPU: 38208
RDBI::isDirty() called
Packet address request from CPU: 221824
RDBI::isDirty() called
Packet address request from CPU: 38272
RDBI::isDirty() called
Packet address request from CPU: 38336
RDBI::isDirty() called
Packet address request from CPU: 38400
RDBI::isDirty() called
Packet address request from CPU: 38464
RDBI::isDirty() called
Packet address request from CPU: 38784
RDBI::isDirty() called
Packet address request from CPU: 38528
RDBI::isDirty() called
Packet address request from CPU: 38592
RDBI::isDirty() called
Packet address request from CPU: 38656
RDBI::isDirty() called
Packet address request from CPU: 180736
RDBI::isDirty() called
Packet address request from CPU: 38720
RDBI::isDirty() called
Packet address request from CPU: 180800
RDBI::isDirty() called
Packet address request from CPU: 182144
RDBI::isDirty() called
Packet address request from CPU: 38848
RDBI::isDirty() called
Packet address request from CPU: 222208
RDBI::isDirty() called
Packet address request from CPU: 38912
RDBI::isDirty() called
Packet address request from CPU: 90496
RDBI::isDirty() called
Packet address request from CPU: 90560
RDBI::isDirty() called
Packet address request from CPU: 182208
RDBI::isDirty() called
Packet address request from CPU: 38976
RDBI::isDirty() called
Packet address request from CPU: 182272
RDBI::isDirty() called
Packet address request from CPU: 39040
RDBI::isDirty() called
Packet address request from CPU: 39104
RDBI::isDirty() called
Packet address request from CPU: 180672
RDBI::isDirty() called
Packet address request from CPU: 39168
RDBI::isDirty() called
Packet address request from CPU: 41536
RDBI::isDirty() called
Packet address request from CPU: 41600
RDBI::isDirty() called
Packet address request from CPU: 124096
RDBI::isDirty() called
Packet address request from CPU: 39232
RDBI::isDirty() called
Packet address request from CPU: 39296
RDBI::isDirty() called
Packet address request from CPU: 39360
RDBI::isDirty() called
Packet address request from CPU: 39424
RDBI::isDirty() called
Packet address request from CPU: 41280
RDBI::isDirty() called
Packet address request from CPU: 41344
RDBI::isDirty() called
Packet address request from CPU: 134144
RDBI::isDirty() called
Packet address request from CPU: 227072
RDBI::isDirty() called
Packet address request from CPU: 229312
RDBI::isDirty() called
Packet address request from CPU: 227136
RDBI::isDirty() called
Packet address request from CPU: 227200
RDBI::isDirty() called
Packet address request from CPU: 227264
RDBI::isDirty() called
Packet address request from CPU: 227328
RDBI::isDirty() called
Packet address request from CPU: 227392
RDBI::isDirty() called
Packet address request from CPU: 227456
RDBI::isDirty() called
Packet address request from CPU: 227520
RDBI::isDirty() called
Packet address request from CPU: 227584
RDBI::isDirty() called
Packet address request from CPU: 227648
RDBI::isDirty() called
Packet address request from CPU: 227712
RDBI::isDirty() called
Packet address request from CPU: 227776
RDBI::isDirty() called
Packet address request from CPU: 227840
RDBI::isDirty() called
Packet address request from CPU: 227904
RDBI::isDirty() called
Packet address request from CPU: 227968
RDBI::isDirty() called
Packet address request from CPU: 228032
RDBI::isDirty() called
Packet address request from CPU: 228096
RDBI::isDirty() called
Packet address request from CPU: 228160
RDBI::isDirty() called
Packet address request from CPU: 228224
RDBI::isDirty() called
Packet address request from CPU: 228288
RDBI::isDirty() called
Packet address request from CPU: 228352
RDBI::isDirty() called
Packet address request from CPU: 228416
RDBI::isDirty() called
Packet address request from CPU: 228480
RDBI::isDirty() called
Packet address request from CPU: 228544
RDBI::isDirty() called
Packet address request from CPU: 228608
RDBI::isDirty() called
Packet address request from CPU: 228672
RDBI::isDirty() called
Packet address request from CPU: 228736
RDBI::isDirty() called
Packet address request from CPU: 228800
RDBI::isDirty() called
Packet address request from CPU: 228864
RDBI::isDirty() called
Packet address request from CPU: 228928
RDBI::isDirty() called
Packet address request from CPU: 228992
RDBI::isDirty() called
Packet address request from CPU: 229056
RDBI::isDirty() called
Packet address request from CPU: 229120
RDBI::isDirty() called
Packet address request from CPU: 229184
RDBI::isDirty() called
Packet address request from CPU: 229248
RDBI::isDirty() called
Packet address request from CPU: 41792
RDBI::isDirty() called
Packet address request from CPU: 39808
RDBI::isDirty() called
Packet address request from CPU: 232320
RDBI::isDirty() called
Packet address request from CPU: 39872
RDBI::isDirty() called
Packet address request from CPU: 39936
RDBI::isDirty() called
Packet address request from CPU: 221248
RDBI::isDirty() called
Packet address request from CPU: 221312
RDBI::isDirty() called
Packet address request from CPU: 232384
RDBI::isDirty() called
Packet address request from CPU: 221440
RDBI::isDirty() called
Packet address request from CPU: 232448
RDBI::isDirty() called
Packet address request from CPU: 40000
RDBI::isDirty() called
Packet address request from CPU: 41216
RDBI::isDirty() called
Packet address request from CPU: 232512
RDBI::isDirty() called
Packet address request from CPU: 221376
RDBI::isDirty() called
Packet address request from CPU: 232576
RDBI::isDirty() called
Packet address request from CPU: 232640
RDBI::isDirty() called
Packet address request from CPU: 221504
RDBI::isDirty() called
Packet address request from CPU: 232704
RDBI::isDirty() called
Packet address request from CPU: 221632
RDBI::isDirty() called
Packet address request from CPU: 221568
RDBI::isDirty() called
Packet address request from CPU: 40064
RDBI::isDirty() called
Packet address request from CPU: 40128
RDBI::isDirty() called
Packet address request from CPU: 40192
RDBI::isDirty() called
Packet address request from CPU: 40256
RDBI::isDirty() called
Packet address request from CPU: 41984
RDBI::isDirty() called
Packet address request from CPU: 40320
RDBI::isDirty() called
Packet address request from CPU: 40448
RDBI::isDirty() called
Packet address request from CPU: 40512
RDBI::isDirty() called
Packet address request from CPU: 40576
RDBI::isDirty() called
Packet address request from CPU: 234112
RDBI::isDirty() called
Packet address request from CPU: 234176
RDBI::isDirty() called
Packet address request from CPU: 40704
RDBI::isDirty() called
Packet address request from CPU: 40768
RDBI::isDirty() called
Packet address request from CPU: 79296
RDBI::isDirty() called
Packet address request from CPU: 70208
RDBI::isDirty() called
Packet address request from CPU: 182912
RDBI::isDirty() called
Packet address request from CPU: 70272
RDBI::isDirty() called
Packet address request from CPU: 70592
RDBI::isDirty() called
Packet address request from CPU: 70720
RDBI::isDirty() called
Packet address request from CPU: 72704
RDBI::isDirty() called
Packet address request from CPU: 73088
RDBI::isDirty() called
Packet address request from CPU: 72960
RDBI::isDirty() called
Packet address request from CPU: 239744
RDBI::isDirty() called
Packet address request from CPU: 239808
RDBI::isDirty() called
Packet address request from CPU: 125184
RDBI::isDirty() called
Packet address request from CPU: 125248
RDBI::isDirty() called
Packet address request from CPU: 125376
RDBI::isDirty() called
Packet address request from CPU: 125440
RDBI::isDirty() called
Packet address request from CPU: 182464
RDBI::isDirty() called
Packet address request from CPU: 128448
RDBI::isDirty() called
Packet address request from CPU: 128512
RDBI::isDirty() called
Packet address request from CPU: 129728
RDBI::isDirty() called
Packet address request from CPU: 129792
RDBI::isDirty() called
Packet address request from CPU: 129856
RDBI::isDirty() called
Packet address request from CPU: 14272
RDBI::isDirty() called
Packet address request from CPU: 129920
RDBI::isDirty() called
Packet address request from CPU: 70656
RDBI::isDirty() called
Packet address request from CPU: 222400
RDBI::isDirty() called
Packet address request from CPU: 175488
RDBI::isDirty() called
Packet address request from CPU: 72768
RDBI::isDirty() called
Packet address request from CPU: 71424
RDBI::isDirty() called
Packet address request from CPU: 71488
RDBI::isDirty() called
Packet address request from CPU: 71552
RDBI::isDirty() called
Packet address request from CPU: 71616
RDBI::isDirty() called
Packet address request from CPU: 222464
RDBI::isDirty() called
Packet address request from CPU: 71680
RDBI::isDirty() called
Packet address request from CPU: 73664
RDBI::isDirty() called
Packet address request from CPU: 73728
RDBI::isDirty() called
Packet address request from CPU: 72064
RDBI::isDirty() called
Packet address request from CPU: 72128
RDBI::isDirty() called
Packet address request from CPU: 72192
RDBI::isDirty() called
Packet address request from CPU: 72384
RDBI::isDirty() called
Packet address request from CPU: 72448
RDBI::isDirty() called
Packet address request from CPU: 72320
RDBI::isDirty() called
Packet address request from CPU: 72512
RDBI::isDirty() called
Packet address request from CPU: 72576
RDBI::isDirty() called
Packet address request from CPU: 72640
RDBI::isDirty() called
Packet address request from CPU: 27200
RDBI::isDirty() called
Packet address request from CPU: 27264
RDBI::isDirty() called
Packet address request from CPU: 27328
RDBI::isDirty() called
Packet address request from CPU: 27520
RDBI::isDirty() called
Packet address request from CPU: 27584
RDBI::isDirty() called
Packet address request from CPU: 27648
RDBI::isDirty() called
Packet address request from CPU: 31616
RDBI::isDirty() called
Packet address request from CPU: 27712
RDBI::isDirty() called
Packet address request from CPU: 79360
RDBI::isDirty() called
Packet address request from CPU: 18752
RDBI::isDirty() called
Packet address request from CPU: 86784
RDBI::isDirty() called
Packet address request from CPU: 86848
RDBI::isDirty() called
Packet address request from CPU: 85568
RDBI::isDirty() called
Packet address request from CPU: 85632
RDBI::isDirty() called
Packet address request from CPU: 1088
RDBI::isDirty() called
Packet address request from CPU: 85696
RDBI::isDirty() called
Packet address request from CPU: 85760
RDBI::isDirty() called
Packet address request from CPU: 85824
RDBI::isDirty() called
Packet address request from CPU: 85888
RDBI::isDirty() called
Packet address request from CPU: 84608
RDBI::isDirty() called
Packet address request from CPU: 84672
RDBI::isDirty() called
Packet address request from CPU: 182848
RDBI::isDirty() called
Packet address request from CPU: 84736
RDBI::isDirty() called
Packet address request from CPU: 244544
RDBI::isDirty() called
Packet address request from CPU: 244608
RDBI::isDirty() called
Packet address request from CPU: 84992
RDBI::isDirty() called
Packet address request from CPU: 1024
RDBI::isDirty() called
Packet address request from CPU: 85952
RDBI::isDirty() called
Packet address request from CPU: 86144
RDBI::isDirty() called
Packet address request from CPU: 86208
RDBI::isDirty() called
Packet address request from CPU: 86272
RDBI::isDirty() called
Packet address request from CPU: 86336
RDBI::isDirty() called
Packet address request from CPU: 222528
RDBI::isDirty() called
Packet address request from CPU: 86400
RDBI::isDirty() called
Packet address request from CPU: 86528
RDBI::isDirty() called
Packet address request from CPU: 245440
RDBI::isDirty() called
Packet address request from CPU: 14336
RDBI::isDirty() called
Packet address request from CPU: 14400
RDBI::isDirty() called
Packet address request from CPU: 245504
RDBI::isDirty() called
Packet address request from CPU: 14464
RDBI::isDirty() called
Packet address request from CPU: 240064
RDBI::isDirty() called
Packet address request from CPU: 244672
RDBI::isDirty() called
Packet address request from CPU: 244736
RDBI::isDirty() called
Packet address request from CPU: 244800
RDBI::isDirty() called
Packet address request from CPU: 244864
RDBI::isDirty() called
Packet address request from CPU: 244928
RDBI::isDirty() called
Packet address request from CPU: 244992
RDBI::isDirty() called
Packet address request from CPU: 245056
RDBI::isDirty() called
Packet address request from CPU: 245120
RDBI::isDirty() called
Packet address request from CPU: 245184
RDBI::isDirty() called
Packet address request from CPU: 245248
RDBI::isDirty() called
Packet address request from CPU: 245312
RDBI::isDirty() called
Packet address request from CPU: 245376
RDBI::isDirty() called
Packet address request from CPU: 223168
RDBI::isDirty() called
Packet address request from CPU: 223232
RDBI::isDirty() called
Packet address request from CPU: 86464
RDBI::isDirty() called
Packet address request from CPU: 222592
RDBI::isDirty() called
Packet address request from CPU: 222656
RDBI::isDirty() called
Packet address request from CPU: 222720
RDBI::isDirty() called
Packet address request from CPU: 222784
RDBI::isDirty() called
Packet address request from CPU: 222848
RDBI::isDirty() called
Packet address request from CPU: 222912
RDBI::isDirty() called
Packet address request from CPU: 222976
RDBI::isDirty() called
Packet address request from CPU: 223040
RDBI::isDirty() called
Packet address request from CPU: 223104
RDBI::isDirty() called
Packet address request from CPU: 223296
RDBI::isDirty() called
Packet address request from CPU: 223360
RDBI::isDirty() called
Packet address request from CPU: 79424
RDBI::isDirty() called
Packet address request from CPU: 27776
RDBI::isDirty() called
Packet address request from CPU: 15040
RDBI::isDirty() called
Packet address request from CPU: 172224
RDBI::isDirty() called
Packet address request from CPU: 15104
RDBI::isDirty() called
Packet address request from CPU: 15168
RDBI::isDirty() called
Packet address request from CPU: 178944
RDBI::isDirty() called
Packet address request from CPU: 15232
RDBI::isDirty() called
Packet address request from CPU: 90880
RDBI::isDirty() called
Packet address request from CPU: 90944
RDBI::isDirty() called
Packet address request from CPU: 91008
RDBI::isDirty() called
Packet address request from CPU: 91072
RDBI::isDirty() called
Packet address request from CPU: 91136
RDBI::isDirty() called
Packet address request from CPU: 223424
RDBI::isDirty() called
Packet address request from CPU: 91200
RDBI::isDirty() called
Packet address request from CPU: 91520
RDBI::isDirty() called
Packet address request from CPU: 91584
RDBI::isDirty() called
Packet address request from CPU: 247552
RDBI::isDirty() called
Packet address request from CPU: 249792
RDBI::isDirty() called
Packet address request from CPU: 247616
RDBI::isDirty() called
Packet address request from CPU: 247680
RDBI::isDirty() called
Packet address request from CPU: 247744
RDBI::isDirty() called
Packet address request from CPU: 247808
RDBI::isDirty() called
Packet address request from CPU: 247872
RDBI::isDirty() called
Packet address request from CPU: 247936
RDBI::isDirty() called
Packet address request from CPU: 248000
RDBI::isDirty() called
Packet address request from CPU: 248064
RDBI::isDirty() called
Packet address request from CPU: 248128
RDBI::isDirty() called
Packet address request from CPU: 248192
RDBI::isDirty() called
Packet address request from CPU: 248256
RDBI::isDirty() called
Packet address request from CPU: 248320
RDBI::isDirty() called
Packet address request from CPU: 248384
RDBI::isDirty() called
Packet address request from CPU: 248448
RDBI::isDirty() called
Packet address request from CPU: 248512
RDBI::isDirty() called
Packet address request from CPU: 248576
RDBI::isDirty() called
Packet address request from CPU: 248640
RDBI::isDirty() called
Packet address request from CPU: 248704
RDBI::isDirty() called
Packet address request from CPU: 248768
RDBI::isDirty() called
Packet address request from CPU: 248832
RDBI::isDirty() called
Packet address request from CPU: 248896
RDBI::isDirty() called
Packet address request from CPU: 248960
RDBI::isDirty() called
Packet address request from CPU: 249024
RDBI::isDirty() called
Packet address request from CPU: 249088
RDBI::isDirty() called
Packet address request from CPU: 249152
RDBI::isDirty() called
Packet address request from CPU: 249216
RDBI::isDirty() called
Packet address request from CPU: 249280
RDBI::isDirty() called
Packet address request from CPU: 249344
RDBI::isDirty() called
Packet address request from CPU: 249408
RDBI::isDirty() called
Packet address request from CPU: 249472
RDBI::isDirty() called
Packet address request from CPU: 249536
RDBI::isDirty() called
Packet address request from CPU: 249600
RDBI::isDirty() called
Packet address request from CPU: 249664
RDBI::isDirty() called
Packet address request from CPU: 249728
RDBI::isDirty() called
Packet address request from CPU: 91648
RDBI::isDirty() called
Packet address request from CPU: 249856
RDBI::isDirty() called
Packet address request from CPU: 15296
RDBI::isDirty() called
Packet address request from CPU: 27840
RDBI::isDirty() called
Packet address request from CPU: 177088
RDBI::isDirty() called
Packet address request from CPU: 29184
RDBI::isDirty() called
Packet address request from CPU: 29248
RDBI::isDirty() called
Packet address request from CPU: 28480
RDBI::isDirty() called
Packet address request from CPU: 28544
RDBI::isDirty() called
Packet address request from CPU: 28672
RDBI::isDirty() called
Packet address request from CPU: 28992
RDBI::isDirty() called
Packet address request from CPU: 28608
RDBI::isDirty() called
Packet address request from CPU: 62080
RDBI::isDirty() called
Packet address request from CPU: 62144
RDBI::isDirty() called
Packet address request from CPU: 62208
RDBI::isDirty() called
Packet address request from CPU: 63488
RDBI::isDirty() called
Packet address request from CPU: 62272
RDBI::isDirty() called
Packet address request from CPU: 253952
RDBI::isDirty() called
Packet address request from CPU: 62336
RDBI::isDirty() called
Packet address request from CPU: 64832
RDBI::isDirty() called
Packet address request from CPU: 62400
RDBI::isDirty() called
Packet address request from CPU: 62464
RDBI::isDirty() called
Packet address request from CPU: 62528
RDBI::isDirty() called
Packet address request from CPU: 62592
RDBI::isDirty() called
Packet address request from CPU: 62656
RDBI::isDirty() called
Packet address request from CPU: 62912
RDBI::isDirty() called
Packet address request from CPU: 62976
RDBI::isDirty() called
Packet address request from CPU: 63040
RDBI::isDirty() called
Packet address request from CPU: 260032
RDBI::isDirty() called
Packet address request from CPU: 245568
RDBI::isDirty() called
Packet address request from CPU: 245632
RDBI::isDirty() called
Packet address request from CPU: 245696
RDBI::isDirty() called
Packet address request from CPU: 260096
RDBI::isDirty() called
Packet address request from CPU: 262144
RDBI::isDirty() called
Packet address request from CPU: 262208
RDBI::isDirty() called
Packet address request from CPU: 262272
RDBI::isDirty() called
Packet address request from CPU: 260160
RDBI::isDirty() called
Packet address request from CPU: 262336
RDBI::isDirty() called
Packet address request from CPU: 262400
RDBI::isDirty() called
Packet address request from CPU: 262464
RDBI::isDirty() called
Packet address request from CPU: 260224
RDBI::isDirty() called
Packet address request from CPU: 262528
RDBI::isDirty() called
Packet address request from CPU: 262592
RDBI::isDirty() called
Packet address request from CPU: 262656
RDBI::isDirty() called
Packet address request from CPU: 260288
RDBI::isDirty() called
Packet address request from CPU: 262720
RDBI::isDirty() called
Packet address request from CPU: 262784
RDBI::isDirty() called
Packet address request from CPU: 262848
RDBI::isDirty() called
Packet address request from CPU: 260352
RDBI::isDirty() called
Packet address request from CPU: 262912
RDBI::isDirty() called
Packet address request from CPU: 262976
RDBI::isDirty() called
Packet address request from CPU: 260416
RDBI::isDirty() called
Packet address request from CPU: 263040
RDBI::isDirty() called
Packet address request from CPU: 263104
RDBI::isDirty() called
Packet address request from CPU: 260480
RDBI::isDirty() called
Packet address request from CPU: 263168
RDBI::isDirty() called
Packet address request from CPU: 260544
RDBI::isDirty() called
Packet address request from CPU: 263232
RDBI::isDirty() called
Packet address request from CPU: 260608
RDBI::isDirty() called
Packet address request from CPU: 263296
RDBI::isDirty() called
Packet address request from CPU: 260672
RDBI::isDirty() called
Packet address request from CPU: 263360
RDBI::isDirty() called
Packet address request from CPU: 263424
RDBI::isDirty() called
Packet address request from CPU: 260736
RDBI::isDirty() called
Packet address request from CPU: 263488
RDBI::isDirty() called
Packet address request from CPU: 263552
RDBI::isDirty() called
Packet address request from CPU: 263616
RDBI::isDirty() called
Packet address request from CPU: 260800
RDBI::isDirty() called
Packet address request from CPU: 263680
RDBI::isDirty() called
Packet address request from CPU: 263744
RDBI::isDirty() called
Packet address request from CPU: 260864
RDBI::isDirty() called
Packet address request from CPU: 263808
RDBI::isDirty() called
Packet address request from CPU: 263872
RDBI::isDirty() called
Packet address request from CPU: 263936
RDBI::isDirty() called
Packet address request from CPU: 260928
RDBI::isDirty() called
Packet address request from CPU: 264000
RDBI::isDirty() called
Packet address request from CPU: 264064
RDBI::isDirty() called
Packet address request from CPU: 264128
RDBI::isDirty() called
Packet address request from CPU: 261056
RDBI::isDirty() called
Packet address request from CPU: 264192
RDBI::isDirty() called
Packet address request from CPU: 264256
RDBI::isDirty() called
Packet address request from CPU: 261120
RDBI::isDirty() called
Packet address request from CPU: 264320
RDBI::isDirty() called
Packet address request from CPU: 261184
RDBI::isDirty() called
Packet address request from CPU: 264384
RDBI::isDirty() called
Packet address request from CPU: 264448
RDBI::isDirty() called
Packet address request from CPU: 264512
RDBI::isDirty() called
Packet address request from CPU: 261248
RDBI::isDirty() called
Packet address request from CPU: 264576
RDBI::isDirty() called
Packet address request from CPU: 261312
RDBI::isDirty() called
Packet address request from CPU: 264640
RDBI::isDirty() called
Packet address request from CPU: 264704
RDBI::isDirty() called
Packet address request from CPU: 261376
RDBI::isDirty() called
Packet address request from CPU: 264768
RDBI::isDirty() called
Packet address request from CPU: 261440
RDBI::isDirty() called
Packet address request from CPU: 264832
RDBI::isDirty() called
Packet address request from CPU: 261504
RDBI::isDirty() called
Packet address request from CPU: 264896
RDBI::isDirty() called
Packet address request from CPU: 264960
RDBI::isDirty() called
Packet address request from CPU: 265024
RDBI::isDirty() called
Packet address request from CPU: 261568
RDBI::isDirty() called
Packet address request from CPU: 265088
RDBI::isDirty() called
Packet address request from CPU: 265152
RDBI::isDirty() called
Packet address request from CPU: 265216
RDBI::isDirty() called
Packet address request from CPU: 261632
RDBI::isDirty() called
Packet address request from CPU: 265280
RDBI::isDirty() called
Packet address request from CPU: 265344
RDBI::isDirty() called
Packet address request from CPU: 265408
RDBI::isDirty() called
Packet address request from CPU: 261696
RDBI::isDirty() called
Packet address request from CPU: 265472
RDBI::isDirty() called
Packet address request from CPU: 265536
RDBI::isDirty() called
Packet address request from CPU: 265600
RDBI::isDirty() called
Packet address request from CPU: 261760
RDBI::isDirty() called
Packet address request from CPU: 265664
RDBI::isDirty() called
Packet address request from CPU: 261824
RDBI::isDirty() called
Packet address request from CPU: 265728
RDBI::isDirty() called
Packet address request from CPU: 261888
RDBI::isDirty() called
Packet address request from CPU: 265792
RDBI::isDirty() called
Packet address request from CPU: 261952
RDBI::isDirty() called
Packet address request from CPU: 265856
RDBI::isDirty() called
Packet address request from CPU: 262016
RDBI::isDirty() called
Packet address request from CPU: 265920
RDBI::isDirty() called
Packet address request from CPU: 262080
RDBI::isDirty() called
Packet address request from CPU: 265984
RDBI::isDirty() called
Packet address request from CPU: 266048
RDBI::isDirty() called
Packet address request from CPU: 266112
RDBI::isDirty() called
Packet address request from CPU: 266240
RDBI::isDirty() called
Packet address request from CPU: 266176
RDBI::isDirty() called
Packet address request from CPU: 270336
RDBI::isDirty() called
Packet address request from CPU: 270400
RDBI::isDirty() called
Packet address request from CPU: 266304
RDBI::isDirty() called
Packet address request from CPU: 270464
RDBI::isDirty() called
Packet address request from CPU: 270528
RDBI::isDirty() called
Packet address request from CPU: 270592
RDBI::isDirty() called
Packet address request from CPU: 266368
RDBI::isDirty() called
Packet address request from CPU: 270656
RDBI::isDirty() called
Packet address request from CPU: 270720
RDBI::isDirty() called
Packet address request from CPU: 270784
RDBI::isDirty() called
Packet address request from CPU: 266432
RDBI::isDirty() called
Packet address request from CPU: 270848
RDBI::isDirty() called
Packet address request from CPU: 270912
RDBI::isDirty() called
Packet address request from CPU: 270976
RDBI::isDirty() called
Packet address request from CPU: 266496
RDBI::isDirty() called
Packet address request from CPU: 271040
RDBI::isDirty() called
Packet address request from CPU: 271104
RDBI::isDirty() called
Packet address request from CPU: 271168
RDBI::isDirty() called
Packet address request from CPU: 266560
RDBI::isDirty() called
Packet address request from CPU: 271232
RDBI::isDirty() called
Packet address request from CPU: 271296
RDBI::isDirty() called
Packet address request from CPU: 271360
RDBI::isDirty() called
Packet address request from CPU: 266624
RDBI::isDirty() called
Packet address request from CPU: 271424
RDBI::isDirty() called
Packet address request from CPU: 271488
RDBI::isDirty() called
Packet address request from CPU: 271552
RDBI::isDirty() called
Packet address request from CPU: 266688
RDBI::isDirty() called
Packet address request from CPU: 271616
RDBI::isDirty() called
Packet address request from CPU: 271680
RDBI::isDirty() called
Packet address request from CPU: 271744
RDBI::isDirty() called
Packet address request from CPU: 266752
RDBI::isDirty() called
Packet address request from CPU: 271808
RDBI::isDirty() called
Packet address request from CPU: 271872
RDBI::isDirty() called
Packet address request from CPU: 271936
RDBI::isDirty() called
Packet address request from CPU: 266816
RDBI::isDirty() called
Packet address request from CPU: 272000
RDBI::isDirty() called
Packet address request from CPU: 272064
RDBI::isDirty() called
Packet address request from CPU: 272128
RDBI::isDirty() called
Packet address request from CPU: 266880
RDBI::isDirty() called
Packet address request from CPU: 272192
RDBI::isDirty() called
Packet address request from CPU: 272256
RDBI::isDirty() called
Packet address request from CPU: 272320
RDBI::isDirty() called
Packet address request from CPU: 266944
RDBI::isDirty() called
Packet address request from CPU: 272384
RDBI::isDirty() called
Packet address request from CPU: 272448
RDBI::isDirty() called
Packet address request from CPU: 272512
RDBI::isDirty() called
Packet address request from CPU: 267008
RDBI::isDirty() called
Packet address request from CPU: 272576
RDBI::isDirty() called
Packet address request from CPU: 267072
RDBI::isDirty() called
Packet address request from CPU: 272640
RDBI::isDirty() called
Packet address request from CPU: 267136
RDBI::isDirty() called
Packet address request from CPU: 267200
RDBI::isDirty() called
Packet address request from CPU: 272704
RDBI::isDirty() called
Packet address request from CPU: 272768
RDBI::isDirty() called
Packet address request from CPU: 272832
RDBI::isDirty() called
Packet address request from CPU: 267264
RDBI::isDirty() called
Packet address request from CPU: 267328
RDBI::isDirty() called
Packet address request from CPU: 272896
RDBI::isDirty() called
Packet address request from CPU: 272960
RDBI::isDirty() called
Packet address request from CPU: 273024
RDBI::isDirty() called
Packet address request from CPU: 267392
RDBI::isDirty() called
Packet address request from CPU: 273088
RDBI::isDirty() called
Packet address request from CPU: 267456
RDBI::isDirty() called
Packet address request from CPU: 273152
RDBI::isDirty() called
Packet address request from CPU: 267520
RDBI::isDirty() called
Packet address request from CPU: 273216
RDBI::isDirty() called
Packet address request from CPU: 273280
RDBI::isDirty() called
Packet address request from CPU: 267584
RDBI::isDirty() called
Packet address request from CPU: 267648
RDBI::isDirty() called
Packet address request from CPU: 273344
RDBI::isDirty() called
Packet address request from CPU: 267712
RDBI::isDirty() called
Packet address request from CPU: 273408
RDBI::isDirty() called
Packet address request from CPU: 273472
RDBI::isDirty() called
Packet address request from CPU: 267776
RDBI::isDirty() called
Packet address request from CPU: 273536
RDBI::isDirty() called
Packet address request from CPU: 273600
RDBI::isDirty() called
Packet address request from CPU: 273664
RDBI::isDirty() called
Packet address request from CPU: 267840
RDBI::isDirty() called
Packet address request from CPU: 273728
RDBI::isDirty() called
Packet address request from CPU: 273792
RDBI::isDirty() called
Packet address request from CPU: 268032
RDBI::isDirty() called
Packet address request from CPU: 273856
RDBI::isDirty() called
Packet address request from CPU: 268096
RDBI::isDirty() called
Packet address request from CPU: 273920
RDBI::isDirty() called
Packet address request from CPU: 268160
RDBI::isDirty() called
Packet address request from CPU: 273984
RDBI::isDirty() called
Packet address request from CPU: 274048
RDBI::isDirty() called
Packet address request from CPU: 268224
RDBI::isDirty() called
Packet address request from CPU: 274112
RDBI::isDirty() called
Packet address request from CPU: 268288
RDBI::isDirty() called
Packet address request from CPU: 274176
RDBI::isDirty() called
Packet address request from CPU: 274240
RDBI::isDirty() called
Packet address request from CPU: 274304
RDBI::isDirty() called
Packet address request from CPU: 268352
RDBI::isDirty() called
Packet address request from CPU: 274368
RDBI::isDirty() called
Packet address request from CPU: 274432
RDBI::isDirty() called
Packet address request from CPU: 274496
RDBI::isDirty() called
Packet address request from CPU: 268416
RDBI::isDirty() called
Packet address request from CPU: 274560
RDBI::isDirty() called
Packet address request from CPU: 274624
RDBI::isDirty() called
Packet address request from CPU: 274688
RDBI::isDirty() called
Packet address request from CPU: 268480
RDBI::isDirty() called
Packet address request from CPU: 274752
RDBI::isDirty() called
Packet address request from CPU: 274816
RDBI::isDirty() called
Packet address request from CPU: 274880
RDBI::isDirty() called
Packet address request from CPU: 268544
RDBI::isDirty() called
Packet address request from CPU: 274944
RDBI::isDirty() called
Packet address request from CPU: 275008
RDBI::isDirty() called
Packet address request from CPU: 275072
RDBI::isDirty() called
Packet address request from CPU: 268608
RDBI::isDirty() called
Packet address request from CPU: 275136
RDBI::isDirty() called
Packet address request from CPU: 275200
RDBI::isDirty() called
Packet address request from CPU: 268672
RDBI::isDirty() called
Packet address request from CPU: 275264
RDBI::isDirty() called
Packet address request from CPU: 275328
RDBI::isDirty() called
Packet address request from CPU: 275392
RDBI::isDirty() called
Packet address request from CPU: 268736
RDBI::isDirty() called
Packet address request from CPU: 275456
RDBI::isDirty() called
Packet address request from CPU: 275520
RDBI::isDirty() called
Packet address request from CPU: 275584
RDBI::isDirty() called
Packet address request from CPU: 268800
RDBI::isDirty() called
Packet address request from CPU: 275648
RDBI::isDirty() called
Packet address request from CPU: 275712
RDBI::isDirty() called
Packet address request from CPU: 275776
RDBI::isDirty() called
Packet address request from CPU: 268864
RDBI::isDirty() called
Packet address request from CPU: 275840
RDBI::isDirty() called
Packet address request from CPU: 275904
RDBI::isDirty() called
Packet address request from CPU: 275968
RDBI::isDirty() called
Packet address request from CPU: 268928
RDBI::isDirty() called
Packet address request from CPU: 276032
RDBI::isDirty() called
Packet address request from CPU: 276096
RDBI::isDirty() called
Packet address request from CPU: 276160
RDBI::isDirty() called
Packet address request from CPU: 268992
RDBI::isDirty() called
Packet address request from CPU: 276224
RDBI::isDirty() called
Packet address request from CPU: 276288
RDBI::isDirty() called
Packet address request from CPU: 276352
RDBI::isDirty() called
Packet address request from CPU: 269056
RDBI::isDirty() called
Packet address request from CPU: 276416
RDBI::isDirty() called
Packet address request from CPU: 276480
RDBI::isDirty() called
Packet address request from CPU: 276544
RDBI::isDirty() called
Packet address request from CPU: 269120
RDBI::isDirty() called
Packet address request from CPU: 276608
RDBI::isDirty() called
Packet address request from CPU: 276672
RDBI::isDirty() called
Packet address request from CPU: 276736
RDBI::isDirty() called
Packet address request from CPU: 269184
RDBI::isDirty() called
Packet address request from CPU: 276800
RDBI::isDirty() called
Packet address request from CPU: 276864
RDBI::isDirty() called
Packet address request from CPU: 276928
RDBI::isDirty() called
Packet address request from CPU: 269248
RDBI::isDirty() called
Packet address request from CPU: 276992
RDBI::isDirty() called
Packet address request from CPU: 277056
RDBI::isDirty() called
Packet address request from CPU: 277120
RDBI::isDirty() called
Packet address request from CPU: 269312
RDBI::isDirty() called
Packet address request from CPU: 277184
RDBI::isDirty() called
Packet address request from CPU: 277248
RDBI::isDirty() called
Packet address request from CPU: 269376
RDBI::isDirty() called
Packet address request from CPU: 277312
RDBI::isDirty() called
Packet address request from CPU: 277376
RDBI::isDirty() called
Packet address request from CPU: 277440
RDBI::isDirty() called
Packet address request from CPU: 269440
RDBI::isDirty() called
Packet address request from CPU: 277504
RDBI::isDirty() called
Packet address request from CPU: 277568
RDBI::isDirty() called
Packet address request from CPU: 277632
RDBI::isDirty() called
Packet address request from CPU: 269504
RDBI::isDirty() called
Packet address request from CPU: 277696
RDBI::isDirty() called
Packet address request from CPU: 277760
RDBI::isDirty() called
Packet address request from CPU: 277824
RDBI::isDirty() called
Packet address request from CPU: 269568
RDBI::isDirty() called
Packet address request from CPU: 277888
RDBI::isDirty() called
Packet address request from CPU: 277952
RDBI::isDirty() called
Packet address request from CPU: 278016
RDBI::isDirty() called
Packet address request from CPU: 269888
RDBI::isDirty() called
Packet address request from CPU: 278080
RDBI::isDirty() called
Packet address request from CPU: 269952
RDBI::isDirty() called
Packet address request from CPU: 278144
RDBI::isDirty() called
Packet address request from CPU: 278208
RDBI::isDirty() called
Packet address request from CPU: 278272
RDBI::isDirty() called
Packet address request from CPU: 270016
RDBI::isDirty() called
Packet address request from CPU: 278336
RDBI::isDirty() called
Packet address request from CPU: 278400
RDBI::isDirty() called
Packet address request from CPU: 278464
RDBI::isDirty() called
Packet address request from CPU: 270080
RDBI::isDirty() called
Packet address request from CPU: 278528
RDBI::isDirty() called
Packet address request from CPU: 278592
RDBI::isDirty() called
Packet address request from CPU: 278656
RDBI::isDirty() called
Packet address request from CPU: 270144
RDBI::isDirty() called
Packet address request from CPU: 278720
RDBI::isDirty() called
Packet address request from CPU: 278784
RDBI::isDirty() called
Packet address request from CPU: 282752
RDBI::isDirty() called
Packet address request from CPU: 278848
RDBI::isDirty() called
Packet address request from CPU: 278912
RDBI::isDirty() called
Packet address request from CPU: 282944
RDBI::isDirty() called
Packet address request from CPU: 278976
RDBI::isDirty() called
Packet address request from CPU: 283136
RDBI::isDirty() called
Packet address request from CPU: 279040
RDBI::isDirty() called
Packet address request from CPU: 283200
RDBI::isDirty() called
Packet address request from CPU: 279104
RDBI::isDirty() called
Packet address request from CPU: 283264
RDBI::isDirty() called
Packet address request from CPU: 279168
RDBI::isDirty() called
Packet address request from CPU: 283328
RDBI::isDirty() called
Packet address request from CPU: 279232
RDBI::isDirty() called
Packet address request from CPU: 283392
RDBI::isDirty() called
Packet address request from CPU: 279296
RDBI::isDirty() called
Packet address request from CPU: 283456
RDBI::isDirty() called
Packet address request from CPU: 279360
RDBI::isDirty() called
Packet address request from CPU: 283520
RDBI::isDirty() called
Packet address request from CPU: 279424
RDBI::isDirty() called
Packet address request from CPU: 283648
RDBI::isDirty() called
Packet address request from CPU: 279488
RDBI::isDirty() called
Packet address request from CPU: 279552
RDBI::isDirty() called
Packet address request from CPU: 283712
RDBI::isDirty() called
Packet address request from CPU: 279616
RDBI::isDirty() called
Packet address request from CPU: 279680
RDBI::isDirty() called
Packet address request from CPU: 283776
RDBI::isDirty() called
Packet address request from CPU: 279744
RDBI::isDirty() called
Packet address request from CPU: 279808
RDBI::isDirty() called
Packet address request from CPU: 283840
RDBI::isDirty() called
Packet address request from CPU: 279872
RDBI::isDirty() called
Packet address request from CPU: 283904
RDBI::isDirty() called
Packet address request from CPU: 279936
RDBI::isDirty() called
Packet address request from CPU: 280000
RDBI::isDirty() called
Packet address request from CPU: 283968
RDBI::isDirty() called
Packet address request from CPU: 280064
RDBI::isDirty() called
Packet address request from CPU: 280128
RDBI::isDirty() called
Packet address request from CPU: 280192
RDBI::isDirty() called
Packet address request from CPU: 284032
RDBI::isDirty() called
Packet address request from CPU: 280256
RDBI::isDirty() called
Packet address request from CPU: 280320
RDBI::isDirty() called
Packet address request from CPU: 280384
RDBI::isDirty() called
Packet address request from CPU: 284096
RDBI::isDirty() called
Packet address request from CPU: 280448
RDBI::isDirty() called
Packet address request from CPU: 280512
RDBI::isDirty() called
Packet address request from CPU: 284160
RDBI::isDirty() called
Packet address request from CPU: 280576
RDBI::isDirty() called
Packet address request from CPU: 280640
RDBI::isDirty() called
Packet address request from CPU: 284224
RDBI::isDirty() called
Packet address request from CPU: 280704
RDBI::isDirty() called
Packet address request from CPU: 280768
RDBI::isDirty() called
Packet address request from CPU: 284288
RDBI::isDirty() called
Packet address request from CPU: 280832
RDBI::isDirty() called
Packet address request from CPU: 280896
RDBI::isDirty() called
Packet address request from CPU: 284352
RDBI::isDirty() called
Packet address request from CPU: 280960
RDBI::isDirty() called
Packet address request from CPU: 281024
RDBI::isDirty() called
Packet address request from CPU: 284416
RDBI::isDirty() called
Packet address request from CPU: 281088
RDBI::isDirty() called
Packet address request from CPU: 281152
RDBI::isDirty() called
Packet address request from CPU: 284480
RDBI::isDirty() called
Packet address request from CPU: 281216
RDBI::isDirty() called
Packet address request from CPU: 281280
RDBI::isDirty() called
Packet address request from CPU: 281344
RDBI::isDirty() called
Packet address request from CPU: 284544
RDBI::isDirty() called
Packet address request from CPU: 281408
RDBI::isDirty() called
Packet address request from CPU: 281472
RDBI::isDirty() called
Packet address request from CPU: 284608
RDBI::isDirty() called
Packet address request from CPU: 281536
RDBI::isDirty() called
Packet address request from CPU: 281600
RDBI::isDirty() called
Packet address request from CPU: 284672
RDBI::isDirty() called
Packet address request from CPU: 281664
RDBI::isDirty() called
Packet address request from CPU: 281728
RDBI::isDirty() called
Packet address request from CPU: 284736
RDBI::isDirty() called
Packet address request from CPU: 281792
RDBI::isDirty() called
Packet address request from CPU: 281856
RDBI::isDirty() called
Packet address request from CPU: 281920
RDBI::isDirty() called
Packet address request from CPU: 284800
RDBI::isDirty() called
Packet address request from CPU: 281984
RDBI::isDirty() called
Packet address request from CPU: 282048
RDBI::isDirty() called
Packet address request from CPU: 282112
RDBI::isDirty() called
Packet address request from CPU: 284864
RDBI::isDirty() called
Packet address request from CPU: 282176
RDBI::isDirty() called
Packet address request from CPU: 282240
RDBI::isDirty() called
Packet address request from CPU: 284928
RDBI::isDirty() called
Packet address request from CPU: 282304
RDBI::isDirty() called
Packet address request from CPU: 282368
RDBI::isDirty() called
Packet address request from CPU: 284992
RDBI::isDirty() called
Packet address request from CPU: 282432
RDBI::isDirty() called
Packet address request from CPU: 282496
RDBI::isDirty() called
Packet address request from CPU: 285056
RDBI::isDirty() called
Packet address request from CPU: 282560
RDBI::isDirty() called
Packet address request from CPU: 286720
RDBI::isDirty() called
Packet address request from CPU: 285120
RDBI::isDirty() called
Packet address request from CPU: 286784
RDBI::isDirty() called
Packet address request from CPU: 285184
RDBI::isDirty() called
Packet address request from CPU: 286848
RDBI::isDirty() called
Packet address request from CPU: 286912
RDBI::isDirty() called
Packet address request from CPU: 285248
RDBI::isDirty() called
Packet address request from CPU: 286976
RDBI::isDirty() called
Packet address request from CPU: 287040
RDBI::isDirty() called
Packet address request from CPU: 285312
RDBI::isDirty() called
Packet address request from CPU: 287104
RDBI::isDirty() called
Packet address request from CPU: 285376
RDBI::isDirty() called
Packet address request from CPU: 287168
RDBI::isDirty() called
Packet address request from CPU: 285504
RDBI::isDirty() called
Packet address request from CPU: 287232
RDBI::isDirty() called
Packet address request from CPU: 287296
RDBI::isDirty() called
Packet address request from CPU: 285568
RDBI::isDirty() called
Packet address request from CPU: 287360
RDBI::isDirty() called
Packet address request from CPU: 287424
RDBI::isDirty() called
Packet address request from CPU: 287488
RDBI::isDirty() called
Packet address request from CPU: 285632
RDBI::isDirty() called
Packet address request from CPU: 287552
RDBI::isDirty() called
Packet address request from CPU: 287616
RDBI::isDirty() called
Packet address request from CPU: 287680
RDBI::isDirty() called
Packet address request from CPU: 285696
RDBI::isDirty() called
Packet address request from CPU: 287744
RDBI::isDirty() called
Packet address request from CPU: 287808
RDBI::isDirty() called
Packet address request from CPU: 287872
RDBI::isDirty() called
Packet address request from CPU: 285760
RDBI::isDirty() called
Packet address request from CPU: 287936
RDBI::isDirty() called
Packet address request from CPU: 285824
RDBI::isDirty() called
Packet address request from CPU: 288000
RDBI::isDirty() called
Packet address request from CPU: 288064
RDBI::isDirty() called
Packet address request from CPU: 288128
RDBI::isDirty() called
Packet address request from CPU: 285888
RDBI::isDirty() called
Packet address request from CPU: 288192
RDBI::isDirty() called
Packet address request from CPU: 288256
RDBI::isDirty() called
Packet address request from CPU: 285952
RDBI::isDirty() called
Packet address request from CPU: 288320
RDBI::isDirty() called
Packet address request from CPU: 286016
RDBI::isDirty() called
Packet address request from CPU: 288384
RDBI::isDirty() called
Packet address request from CPU: 288448
RDBI::isDirty() called
Packet address request from CPU: 288512
RDBI::isDirty() called
Packet address request from CPU: 286080
RDBI::isDirty() called
Packet address request from CPU: 288576
RDBI::isDirty() called
Packet address request from CPU: 288640
RDBI::isDirty() called
Packet address request from CPU: 288704
RDBI::isDirty() called
Packet address request from CPU: 286144
RDBI::isDirty() called
Packet address request from CPU: 286208
RDBI::isDirty() called
Packet address request from CPU: 288768
RDBI::isDirty() called
Packet address request from CPU: 288832
RDBI::isDirty() called
Packet address request from CPU: 288896
RDBI::isDirty() called
Packet address request from CPU: 286272
RDBI::isDirty() called
Packet address request from CPU: 288960
RDBI::isDirty() called
Packet address request from CPU: 289024
RDBI::isDirty() called
Packet address request from CPU: 289088
RDBI::isDirty() called
Packet address request from CPU: 286336
RDBI::isDirty() called
Packet address request from CPU: 289152
RDBI::isDirty() called
Packet address request from CPU: 289216
RDBI::isDirty() called
Packet address request from CPU: 286400
RDBI::isDirty() called
Packet address request from CPU: 289280
RDBI::isDirty() called
Packet address request from CPU: 289344
RDBI::isDirty() called
Packet address request from CPU: 289408
RDBI::isDirty() called
Packet address request from CPU: 286464
RDBI::isDirty() called
Packet address request from CPU: 289472
RDBI::isDirty() called
Packet address request from CPU: 289536
RDBI::isDirty() called
Packet address request from CPU: 289600
[...]
RDBI::isDirty() called
Packet address request from CPU: 516736
RDBI::isDirty() called
Packet address request from CPU: 516544
RDBI::isDirty() called
Packet address request from CPU: 537728
RDBI::isDirty() called
Packet address request from CPU: 537792
RDBI::isDirty() called
Packet address request from CPU: 538496
RDBI::isDirty() called
Packet address request from CPU: 585472
RDBI::isDirty() called
Packet address request from CPU: 516608
RDBI::isDirty() called
Packet address request from CPU: 2048
RDBI::isDirty() called
Packet address request from CPU: 557120
RDBI::isDirty() called
Packet address request from CPU: 557184
RDBI::isDirty() called
Packet address request from CPU: 557248
RDBI::isDirty() called
Packet address request from CPU: 557312
RDBI::isDirty() called
Packet address request from CPU: 557376
RDBI::isDirty() called
Packet address request from CPU: 557440
RDBI::isDirty() called
Packet address request from CPU: 557504
RDBI::isDirty() called
Packet address request from CPU: 557568
RDBI::isDirty() called
Packet address request from CPU: 557632
RDBI::isDirty() called
Packet address request from CPU: 557696
RDBI::isDirty() called
Packet address request from CPU: 557760
RDBI::isDirty() called
Packet address request from CPU: 557824
RDBI::isDirty() called
Packet address request from CPU: 557888
RDBI::isDirty() called
Packet address request from CPU: 557952
RDBI::isDirty() called
Packet address request from CPU: 558016
RDBI::isDirty() called
Packet address request from CPU: 558080
RDBI::isDirty() called
Packet address request from CPU: 558144
RDBI::isDirty() called
Packet address request from CPU: 558208
RDBI::isDirty() called
RDBI::setDirtyBit() called
RDBI::createRDBIEntry() called
RDBI::setDirtyBit() called
Regenerated address: 30787381523823
Packet address request from CPU: 558272
RDBI::isDirty() called
Packet address request from CPU: 558336
RDBI::isDirty() called
Packet address request from CPU: 558400
RDBI::isDirty() called
Packet address request from CPU: 558464
RDBI::isDirty() called
Packet address request from CPU: 558528
RDBI::isDirty() called
Packet address request from CPU: 558592
RDBI::isDirty() called
Packet address request from CPU: 558656
RDBI::isDirty() called
Packet address request from CPU: 558720
RDBI::isDirty() called
Packet address request from CPU: 558784
RDBI::isDirty() called
Packet address request from CPU: 558848
RDBI::isDirty() called
Packet address request from CPU: 558912
RDBI::isDirty() called
Packet address request from CPU: 558976
RDBI::isDirty() called
Packet address request from CPU: 559040
RDBI::isDirty() called
Packet address request from CPU: 559104
RDBI::isDirty() called
RDBI::setDirtyBit() called
Regenerated address: 30787104699759
Packet address request from CPU: 559168
RDBI::isDirty() called
Packet address request from CPU: 559232
RDBI::isDirty() called
Packet address request from CPU: 559296
RDBI::isDirty() called
Packet address request from CPU: 559360
RDBI::isDirty() called
Packet address request from CPU: 559424
RDBI::isDirty() called
Packet address request from CPU: 559488
RDBI::isDirty() called
Packet address request from CPU: 559552
RDBI::isDirty() called
Packet address request from CPU: 559616
RDBI::isDirty() called
Packet address request from CPU: 559680
RDBI::isDirty() called
Packet address request from CPU: 559744
RDBI::isDirty() called
Packet address request from CPU: 559808
RDBI::isDirty() called
Packet address request from CPU: 559872
RDBI::isDirty() called
Packet address request from CPU: 559936
RDBI::isDirty() called
Packet address request from CPU: 560000
RDBI::isDirty() called
Packet address request from CPU: 560064
RDBI::isDirty() called
Packet address request from CPU: 560128
RDBI::isDirty() called
Packet address request from CPU: 560192
RDBI::isDirty() called
Packet address request from CPU: 560256
RDBI::isDirty() called
Packet address request from CPU: 560320
RDBI::isDirty() called
Packet address request from CPU: 560384
RDBI::isDirty() called
Packet address request from CPU: 560448
RDBI::isDirty() called
Packet address request from CPU: 560512
RDBI::isDirty() called
Packet address request from CPU: 560576
RDBI::isDirty() called
Packet address request from CPU: 560640
RDBI::isDirty() called
Packet address request from CPU: 560704
RDBI::isDirty() called
Packet address request from CPU: 560768
RDBI::isDirty() called
Packet address request from CPU: 560832
RDBI::isDirty() called
Packet address request from CPU: 560896
RDBI::isDirty() called
Packet address request from CPU: 560960
RDBI::isDirty() called
Packet address request from CPU: 561024
RDBI::isDirty() called
Packet address request from CPU: 561088
RDBI::isDirty() called
Packet address request from CPU: 585728
RDBI::isDirty() called
Packet address request from CPU: 585792
RDBI::isDirty() called
Packet address request from CPU: 585856
RDBI::isDirty() called
Packet address request from CPU: 585920
RDBI::isDirty() called
Packet address request from CPU: 585984
RDBI::isDirty() called
Packet address request from CPU: 586048
RDBI::isDirty() called
Packet address request from CPU: 586112
RDBI::isDirty() called
Packet address request from CPU: 586176
RDBI::isDirty() called
Packet address request from CPU: 586240
RDBI::isDirty() called
Packet address request from CPU: 586304
RDBI::isDirty() called
Packet address request from CPU: 586368
RDBI::isDirty() called
Packet address request from CPU: 586432
RDBI::isDirty() called
Packet address request from CPU: 586496
RDBI::isDirty() called
Packet address request from CPU: 586560
RDBI::isDirty() called
Packet address request from CPU: 586624
RDBI::isDirty() called
Packet address request from CPU: 586688
RDBI::isDirty() called
Packet address request from CPU: 586752
RDBI::isDirty() called
Packet address request from CPU: 586816
RDBI::isDirty() called
Packet address request from CPU: 586880
RDBI::isDirty() called
Packet address request from CPU: 586944
RDBI::isDirty() called
Packet address request from CPU: 587008
RDBI::isDirty() called
Packet address request from CPU: 587072
RDBI::isDirty() called
Packet address request from CPU: 587136
RDBI::isDirty() called
Packet address request from CPU: 587200
RDBI::isDirty() called
Packet address request from CPU: 587264
RDBI::isDirty() called
Packet address request from CPU: 587328
RDBI::isDirty() called
Packet address request from CPU: 587392
RDBI::isDirty() called
Packet address request from CPU: 587456
RDBI::isDirty() called
Packet address request from CPU: 587520
RDBI::isDirty() called
Packet address request from CPU: 587584
RDBI::isDirty() called
Packet address request from CPU: 587648
RDBI::isDirty() called
Packet address request from CPU: 587712
RDBI::isDirty() called
Packet address request from CPU: 587776
RDBI::isDirty() called
Packet address request from CPU: 587840
RDBI::isDirty() called
Packet address request from CPU: 587904
RDBI::isDirty() called
Packet address request from CPU: 587968
RDBI::isDirty() called
Packet address request from CPU: 588032
RDBI::isDirty() called
RDBI::setDirtyBit() called
RDBI::createRDBIEntry() called
RDBI::setDirtyBit() called
Regenerated address: 34635395396975
Packet address request from CPU: 588096
RDBI::isDirty() called
Packet address request from CPU: 588160
RDBI::isDirty() called
Packet address request from CPU: 588224
RDBI::isDirty() called
Packet address request from CPU: 588288
RDBI::isDirty() called
Packet address request from CPU: 588352
RDBI::isDirty() called
Packet address request from CPU: 588416
RDBI::isDirty() called
Packet address request from CPU: 588480
RDBI::isDirty() called
Packet address request from CPU: 588544
RDBI::isDirty() called
Packet address request from CPU: 588608
RDBI::isDirty() called
Packet address request from CPU: 588672
RDBI::isDirty() called
Packet address request from CPU: 588736
RDBI::isDirty() called
Packet address request from CPU: 588800
RDBI::isDirty() called
Packet address request from CPU: 588864
RDBI::isDirty() called
Packet address request from CPU: 588928
RDBI::isDirty() called
Packet address request from CPU: 588992
RDBI::isDirty() called
Packet address request from CPU: 589056
RDBI::isDirty() called
Packet address request from CPU: 589120
RDBI::isDirty() called
Packet address request from CPU: 589184
RDBI::isDirty() called
Packet address request from CPU: 589248
RDBI::isDirty() called
Packet address request from CPU: 589312
RDBI::isDirty() called
Packet address request from CPU: 589376
RDBI::isDirty() called
Packet address request from CPU: 589440
RDBI::isDirty() called
RDBI::setDirtyBit() called
Regenerated address: 34635395396975
Packet address request from CPU: 589504
RDBI::isDirty() called
Packet address request from CPU: 589568
RDBI::isDirty() called
Packet address request from CPU: 589632
RDBI::isDirty() called
Packet address request from CPU: 589696
RDBI::isDirty() called
Packet address request from CPU: 589760
RDBI::isDirty() called
Packet address request from CPU: 581632
RDBI::isDirty() called
Packet address request from CPU: 581696
RDBI::isDirty() called
Packet address request from CPU: 581760
RDBI::isDirty() called
Packet address request from CPU: 581824
RDBI::isDirty() called
Packet address request from CPU: 581888
RDBI::isDirty() called
Packet address request from CPU: 581952
RDBI::isDirty() called
Packet address request from CPU: 582016
RDBI::isDirty() called
Packet address request from CPU: 582080
RDBI::isDirty() called
Packet address request from CPU: 582144
RDBI::isDirty() called
Packet address request from CPU: 582208
RDBI::isDirty() called
Packet address request from CPU: 582272
RDBI::isDirty() called
Packet address request from CPU: 582336
RDBI::isDirty() called
Packet address request from CPU: 582400
RDBI::isDirty() called
Packet address request from CPU: 582464
RDBI::isDirty() called
Packet address request from CPU: 582528
RDBI::isDirty() called
Packet address request from CPU: 582592
RDBI::isDirty() called
Packet address request from CPU: 582656
RDBI::isDirty() called
RDBI::setDirtyBit() called
RDBI::createRDBIEntry() called
RDBI::setDirtyBit() called
Regenerated address: 34085639583087
Packet address request from CPU: 582720
RDBI::isDirty() called
Packet address request from CPU: 582784
RDBI::isDirty() called
Packet address request from CPU: 582848
RDBI::isDirty() called
Packet address request from CPU: 582912
RDBI::isDirty() called
Packet address request from CPU: 582976
RDBI::isDirty() called
Packet address request from CPU: 583040
RDBI::isDirty() called
Packet address request from CPU: 583104
RDBI::isDirty() called
Packet address request from CPU: 583168
RDBI::isDirty() called
Packet address request from CPU: 583232
RDBI::isDirty() called
Packet address request from CPU: 583296
RDBI::isDirty() called
Packet address request from CPU: 583360
RDBI::isDirty() called
Packet address request from CPU: 583424
RDBI::isDirty() called
Packet address request from CPU: 583488
RDBI::isDirty() called
Packet address request from CPU: 583552
RDBI::isDirty() called
Packet address request from CPU: 583616
RDBI::isDirty() called
Packet address request from CPU: 583680
RDBI::isDirty() called
Packet address request from CPU: 583744
RDBI::isDirty() called
Packet address request from CPU: 583808
RDBI::isDirty() called
Packet address request from CPU: 583872
RDBI::isDirty() called
Packet address request from CPU: 583936
RDBI::isDirty() called
Packet address request from CPU: 584000
RDBI::isDirty() called
Packet address request from CPU: 584064
RDBI::isDirty() called
Packet address request from CPU: 584128
RDBI::isDirty() called
Packet address request from CPU: 584192
RDBI::isDirty() called
Packet address request from CPU: 584256
RDBI::isDirty() called
Packet address request from CPU: 584320
RDBI::isDirty() called
Packet address request from CPU: 584384
RDBI::isDirty() called
Packet address request from CPU: 584448
RDBI::isDirty() called
Packet address request from CPU: 584512
RDBI::isDirty() called
Packet address request from CPU: 584576
RDBI::isDirty() called
Packet address request from CPU: 584640
RDBI::isDirty() called
Packet address request from CPU: 584704
RDBI::isDirty() called
Packet address request from CPU: 584768
RDBI::isDirty() called
Packet address request from CPU: 584832
RDBI::isDirty() called
Packet address request from CPU: 584896
RDBI::isDirty() called
Packet address request from CPU: 584960
RDBI::isDirty() called
Packet address request from CPU: 585024
RDBI::isDirty() called
Packet address request from CPU: 585088
RDBI::isDirty() called
Packet address request from CPU: 585152
RDBI::isDirty() called
Packet address request from CPU: 585216
RDBI::isDirty() called
Packet address request from CPU: 585280
RDBI::isDirty() called
Packet address request from CPU: 585344
RDBI::isDirty() called
Packet address request from CPU: 585408
RDBI::isDirty() called
Packet address request from CPU: 321728
RDBI::isDirty() called
RDBI::setDirtyBit() called
Regenerated address: 34085639583087
Packet address request from CPU: 240384
RDBI::isDirty() called
Packet address request from CPU: 444608
RDBI::isDirty() called
Packet address request from CPU: 444672
RDBI::isDirty() called
Packet address request from CPU: 431232
RDBI::isDirty() called
Packet address request from CPU: 445632
RDBI::isDirty() called
Packet address request from CPU: 445696
RDBI::isDirty() called
Packet address request from CPU: 445760
RDBI::isDirty() called
Packet address request from CPU: 254144
RDBI::isDirty() called
Packet address request from CPU: 254208
RDBI::isDirty() called
Packet address request from CPU: 445824
RDBI::isDirty() called
Packet address request from CPU: 445504
RDBI::isDirty() called
Packet address request from CPU: 445568
RDBI::isDirty() called
Packet address request from CPU: 445888
RDBI::isDirty() called
Packet address request from CPU: 444736
RDBI::isDirty() called
RDBI::setDirtyBit() called
Regenerated address: 32986127955311
Packet address request from CPU: 2176
RDBI::isDirty() called
Packet address request from CPU: 242368
RDBI::isDirty() called
Packet address request from CPU: 446272
RDBI::isDirty() called
Packet address request from CPU: 445120
RDBI::isDirty() called
Packet address request from CPU: 445184
RDBI::isDirty() called
Packet address request from CPU: 445248
RDBI::isDirty() called
Packet address request from CPU: 2112
RDBI::isDirty() called
Packet address request from CPU: 2240
RDBI::isDirty() called
Packet address request from CPU: 484032
RDBI::isDirty() called
Sum: 4 
Packet address request from CPU: 127488
RDBI::isDirty() called
Packet address request from CPU: 127552
RDBI::isDirty() called
Packet address request from CPU: 127616
RDBI::isDirty() called
Packet address request from CPU: 361856
RDBI::isDirty() called
Packet address request from CPU: 127680
RDBI::isDirty() called
Packet address request from CPU: 517440
RDBI::isDirty() called
RDBI::setDirtyBit() called
Regenerated address: 34085639583087
Packet address request from CPU: 517504
RDBI::isDirty() called
Packet address request from CPU: 593216
RDBI::isDirty() called
Packet address request from CPU: 593280
RDBI::isDirty() called
Packet address request from CPU: 593600
RDBI::isDirty() called
Packet address request from CPU: 594560
RDBI::isDirty() called
Packet address request from CPU: 594624
RDBI::isDirty() called
Packet address request from CPU: 593664
RDBI::isDirty() called
Packet address request from CPU: 596160
RDBI::isDirty() called
Packet address request from CPU: 596224
RDBI::isDirty() called
Packet address request from CPU: 593728
RDBI::isDirty() called
Packet address request from CPU: 593856
RDBI::isDirty() called
Packet address request from CPU: 593984
RDBI::isDirty() called
Packet address request from CPU: 594048
RDBI::isDirty() called
Packet address request from CPU: 596352
RDBI::isDirty() called
Packet address request from CPU: 596416
RDBI::isDirty() called
Packet address request from CPU: 600128
RDBI::isDirty() called
Packet address request from CPU: 600192
RDBI::isDirty() called
Packet address request from CPU: 595008
RDBI::isDirty() called
Packet address request from CPU: 595072
RDBI::isDirty() called
Packet address request from CPU: 593536
RDBI::isDirty() called
Packet address request from CPU: 442432
RDBI::isDirty() called
Packet address request from CPU: 462592
RDBI::isDirty() called
Packet address request from CPU: 443840
RDBI::isDirty() called
Packet address request from CPU: 443904
RDBI::isDirty() called
Packet address request from CPU: 462656
RDBI::isDirty() called
Packet address request from CPU: 462784
RDBI::isDirty() called
RDBI::setDirtyBit() called
RDBI::createRDBIEntry() called
RDBI::setDirtyBit() called
Regenerated address: 70369523299695
Packet address request from CPU: 442368
RDBI::isDirty() called
Packet address request from CPU: 80576
RDBI::isDirty() called
Packet address request from CPU: 80640
RDBI::isDirty() called
Packet address request from CPU: 80704
RDBI::isDirty() called
Packet address request from CPU: 80768
RDBI::isDirty() called
Packet address request from CPU: 80832
RDBI::isDirty() called
Packet address request from CPU: 80896
RDBI::isDirty() called
Packet address request from CPU: 80960
RDBI::isDirty() called
RDBI::setDirtyBit() called
RDBI::createRDBIEntry() called
RDBI::setDirtyBit() called
Regenerated address: 23640279119215
Packet address request from CPU: 81024
RDBI::isDirty() called
Packet address request from CPU: 81088
RDBI::isDirty() called
Packet address request from CPU: 81152
RDBI::isDirty() called
Packet address request from CPU: 81600
RDBI::isDirty() called
Packet address request from CPU: 81664
RDBI::isDirty() called
Packet address request from CPU: 81280
RDBI::isDirty() called
Packet address request from CPU: 81344
RDBI::isDirty() called
Packet address request from CPU: 81408
RDBI::isDirty() called
Packet address request from CPU: 81472
RDBI::isDirty() called
Packet address request from CPU: 81536
RDBI::isDirty() called
Packet address request from CPU: 81792
RDBI::isDirty() called
Packet address request from CPU: 462720
RDBI::isDirty() called
Packet address request from CPU: 602880
RDBI::isDirty() called
Packet address request from CPU: 602112
RDBI::isDirty() called
RDBI::setDirtyBit() called
Regenerated address: 23640279119215
Packet address request from CPU: 602176
RDBI::isDirty() called
Packet address request from CPU: 602688
RDBI::isDirty() called
Packet address request from CPU: 602752
RDBI::isDirty() called
Packet address request from CPU: 431936
RDBI::isDirty() called
Packet address request from CPU: 602304
RDBI::isDirty() called
Packet address request from CPU: 602368
RDBI::isDirty() called
Packet address request from CPU: 602432
RDBI::isDirty() called
Packet address request from CPU: 602496
RDBI::isDirty() called
Packet address request from CPU: 226624
RDBI::isDirty() called
Packet address request from CPU: 602624
RDBI::isDirty() called
Packet address request from CPU: 256256
RDBI::isDirty() called
Packet address request from CPU: 602944
RDBI::isDirty() called
Packet address request from CPU: 603072
RDBI::isDirty() called
Packet address request from CPU: 603136
RDBI::isDirty() called
Packet address request from CPU: 603008
RDBI::isDirty() called
Packet address request from CPU: 508992
RDBI::isDirty() called
Packet address request from CPU: 502080
RDBI::isDirty() called
Packet address request from CPU: 508800
RDBI::isDirty() called
Packet address request from CPU: 508864
RDBI::isDirty() called
Packet address request from CPU: 502208
RDBI::isDirty() called
Packet address request from CPU: 502144
RDBI::isDirty() called
Packet address request from CPU: 603200
RDBI::isDirty() called
Packet address request from CPU: 603264
RDBI::isDirty() called
Packet address request from CPU: 256192
RDBI::isDirty() called
RDBI::clearDirtyBit() called
Packet address request from CPU: 256192
Got the RDBI entry
Checking if the entry is valid
Entry is valid
RDBI::writebackRDBIEntry() called (at the start)
RDBI::writebackRDBIEntry() called (at the end1)
Inside the if condition
Before calling allocateWriteBuffer()
