Global frequency set at 1000000000000 ticks per second
      0: system.l2cache: Hey, I am a toy component. Glad to exist in 2022
gem5 Simulator System.  https://www.gem5.org
gem5 is copyrighted software; use the --copyright option for details.

gem5 version 22.0.0.2
gem5 compiled Dec 22 2022 10:05:07
gem5 started Dec 22 2022 10:12:40
gem5 executing on v100-gpu-4, pid 31248
command line: ./build/X86/gem5.opt --debug-flags=Toy configs/learning_gem5/Toy/two_level.py configs/learning_gem5/Toy/add

Beginning simulation!

The time taken is 0.000000 milliseconds
 To be filled 
Exiting @ tick 832491000 because exiting with last active thread context
