Global frequency set at 1000000000000 ticks per second
Hey, I am a DBICache component + Deepanjali
Hey, I am a RDBI component
Sets: 32
gem5 Simulator System.  https://www.gem5.org
gem5 is copyrighted software; use the --copyright option for details.

gem5 version 22.0.0.2
gem5 compiled Mar 24 2023 19:28:06
gem5 started Mar 24 2023 19:31:55
gem5 executing on v100-gpu-4, pid 19178
command line: build/X86/gem5.opt --stats-file =trew_dbi.txt configs/learning_gem5/DebugDBI/DBICache/config.py test-benchmark/test -n 50000 -k 4 -t 100

Beginning simulation!
blkIndexInBitset from getRDBIEntry: 000000000000000001110000
Region Tag000000000000000000000001
rDBIIndex from getRDBIEntry: 000000000000000000000001
Re-generated address: 000000000011110000000000
blkIndexInBitset from getRDBIEntry: 000000000000000000111000
Region Tag000000000000000000010110
rDBIIndex from getRDBIEntry: 000000000000000000010110
Re-generated address: 000000101100111000000000
blkIndexInBitset from getRDBIEntry: 000000000000000000100110
Region Tag000000000000000000000010
rDBIIndex from getRDBIEntry: 000000000000000000000010
Re-generated address: 000000000100100110000000
blkIndexInBitset from getRDBIEntry: 000000000000000000110111
Region Tag000000000000000000010110
rDBIIndex from getRDBIEntry: 000000000000000000010110
Re-generated address: 000000101100110111000000
blkIndexInBitset from getRDBIEntry: 000000000000000000100111
Region Tag000000000000000000000010
rDBIIndex from getRDBIEntry: 000000000000000000000010
Re-generated address: 000000000100100111000000
blkIndexInBitset from getRDBIEntry: 000000000000000001110001
Region Tag000000000000000000010100
rDBIIndex from getRDBIEntry: 000000000000000000010100
Re-generated address: 000000101001110001000000
blkIndexInBitset from getRDBIEntry: 000000000000000001111010
Region Tag000000000000000000010100
rDBIIndex from getRDBIEntry: 000000000000000000010100
Re-generated address: 000000101001111010000000
blkIndexInBitset from getRDBIEntry: 000000000000000000000000
Region Tag000000000000000000010101
rDBIIndex from getRDBIEntry: 000000000000000000010101
Re-generated address: 000000101010000000000000
blkIndexInBitset from getRDBIEntry: 000000000000000000100111
Region Tag000000000000000000010101
rDBIIndex from getRDBIEntry: 000000000000000000010101
Re-generated address: 000000101010100111000000
blkIndexInBitset from getRDBIEntry: 000000000000000000101000
Region Tag000000000000000000000010
rDBIIndex from getRDBIEntry: 000000000000000000000010
Re-generated address: 000000000100101000000000
blkIndexInBitset from getRDBIEntry: 000000000000000000101001
Region Tag000000000000000000000010
rDBIIndex from getRDBIEntry: 000000000000000000000010
Re-generated address: 000000000100101001000000
blkIndexInBitset from getRDBIEntry: 000000000000000000101010
Region Tag000000000000000000010101
rDBIIndex from getRDBIEntry: 000000000000000000010101
Re-generated address: 000000101010101010000000
blkIndexInBitset from getRDBIEntry: 000000000000000000101000
Region Tag000000000000000000010101
rDBIIndex from getRDBIEntry: 000000000000000000010101
Re-generated address: 000000101010101000000000
blkIndexInBitset from getRDBIEntry: 000000000000000000110001
Region Tag000000000000000000000010
rDBIIndex from getRDBIEntry: 000000000000000000000010
Re-generated address: 000000000100110001000000
blkIndexInBitset from getRDBIEntry: 000000000000000000110010
Region Tag000000000000000000000010
rDBIIndex from getRDBIEntry: 000000000000000000000010
Re-generated address: 000000000100110010000000
blkIndexInBitset from getRDBIEntry: 000000000000000000110111
Region Tag000000000000000000000010
rDBIIndex from getRDBIEntry: 000000000000000000000010
Re-generated address: 000000000100110111000000
blkIndexInBitset from getRDBIEntry: 000000000000000000110001
Region Tag000000000000000000010101
rDBIIndex from getRDBIEntry: 000000000000000000010101
Re-generated address: 000000101010110001000000
blkIndexInBitset from getRDBIEntry: 000000000000000000101001
Region Tag000000000000000000010101
rDBIIndex from getRDBIEntry: 000000000000000000010101
Re-generated address: 000000101010101001000000
blkIndexInBitset from getRDBIEntry: 000000000000000001111011
Region Tag000000000000000000010100
rDBIIndex from getRDBIEntry: 000000000000000000010100
Re-generated address: 000000101001111011000000
blkIndexInBitset from getRDBIEntry: 000000000000000001111100
Region Tag000000000000000000010100
rDBIIndex from getRDBIEntry: 000000000000000000010100
Re-generated address: 000000101001111100000000
blkIndexInBitset from getRDBIEntry: 000000000000000000101011
Region Tag000000000000000000010101
rDBIIndex from getRDBIEntry: 000000000000000000010101
Re-generated address: 000000101010101011000000
blkIndexInBitset from getRDBIEntry: 000000000000000001111101
Region Tag000000000000000000010100
rDBIIndex from getRDBIEntry: 000000000000000000010100
Re-generated address: 000000101001111101000000
blkIndexInBitset from getRDBIEntry: 000000000000000000101010
Region Tag000000000000000000000010
rDBIIndex from getRDBIEntry: 000000000000000000000010
Re-generated address: 000000000100101010000000
blkIndexInBitset from getRDBIEntry: 000000000000000000101101
Region Tag000000000000000000010101
rDBIIndex from getRDBIEntry: 000000000000000000010101
Re-generated address: 000000101010101101000000
blkIndexInBitset from getRDBIEntry: 000000000000000000101100
Region Tag000000000000000000010101
rDBIIndex from getRDBIEntry: 000000000000000000010101
Re-generated address: 000000101010101100000000
blkIndexInBitset from getRDBIEntry: 000000000000000001111110
Region Tag000000000000000000010100
rDBIIndex from getRDBIEntry: 000000000000000000010100
Re-generated address: 000000101001111110000000
blkIndexInBitset from getRDBIEntry: 000000000000000000101110
Region Tag000000000000000000010101
rDBIIndex from getRDBIEntry: 000000000000000000010101
Re-generated address: 000000101010101110000000
blkIndexInBitset from getRDBIEntry: 000000000000000000101011
Region Tag000000000000000000000010
rDBIIndex from getRDBIEntry: 000000000000000000000010
Re-generated address: 000000000100101011000000
blkIndexInBitset from getRDBIEntry: 000000000000000000101100
Region Tag000000000000000000000010
rDBIIndex from getRDBIEntry: 000000000000000000000010
Re-generated address: 000000000100101100000000
blkIndexInBitset from getRDBIEntry: 000000000000000000101101
Region Tag000000000000000000000010
rDBIIndex from getRDBIEntry: 000000000000000000000010
Re-generated address: 000000000100101101000000
blkIndexInBitset from getRDBIEntry: 000000000000000000101110
Region Tag000000000000000000000010
rDBIIndex from getRDBIEntry: 000000000000000000000010
Re-generated address: 000000000100101110000000
blkIndexInBitset from getRDBIEntry: 000000000000000000110011
Region Tag000000000000000000000010
rDBIIndex from getRDBIEntry: 000000000000000000000010
Re-generated address: 000000000100110011000000
blkIndexInBitset from getRDBIEntry: 000000000000000000110100
Region Tag000000000000000000000010
rDBIIndex from getRDBIEntry: 000000000000000000000010
Re-generated address: 000000000100110100000000
blkIndexInBitset from getRDBIEntry: 000000000000000001100011
Region Tag000000000000000000000001
rDBIIndex from getRDBIEntry: 000000000000000000000001
Re-generated address: 000000000011100011000000
blkIndexInBitset from getRDBIEntry: 000000000000000000110101
Region Tag000000000000000000000010
rDBIIndex from getRDBIEntry: 000000000000000000000010
Re-generated address: 000000000100110101000000
blkIndexInBitset from getRDBIEntry: 000000000000000001110110
Region Tag000000000000000000010100
rDBIIndex from getRDBIEntry: 000000000000000000010100
Re-generated address: 000000101001110110000000
blkIndexInBitset from getRDBIEntry: 000000000000000001100100
Region Tag000000000000000000000001
rDBIIndex from getRDBIEntry: 000000000000000000000001
Re-generated address: 000000000011100100000000
blkIndexInBitset from getRDBIEntry: 000000000000000001110111
Region Tag000000000000000000010100
rDBIIndex from getRDBIEntry: 000000000000000000010100
Re-generated address: 000000101001110111000000
blkIndexInBitset from getRDBIEntry: 000000000000000001100101
Region Tag000000000000000000000001
rDBIIndex from getRDBIEntry: 000000000000000000000001
Re-generated address: 000000000011100101000000
blkIndexInBitset from getRDBIEntry: 000000000000000001100110
Region Tag000000000000000000000001
rDBIIndex from getRDBIEntry: 000000000000000000000001
Re-generated address: 000000000011100110000000
blkIndexInBitset from getRDBIEntry: 000000000000000001100111
Region Tag000000000000000000000001
rDBIIndex from getRDBIEntry: 000000000000000000000001
Re-generated address: 000000000011100111000000
blkIndexInBitset from getRDBIEntry: 000000000000000001111000
Region Tag000000000000000000010100
rDBIIndex from getRDBIEntry: 000000000000000000010100
Re-generated address: 000000101001111000000000
blkIndexInBitset from getRDBIEntry: 000000000000000000110110
Region Tag000000000000000000000010
rDBIIndex from getRDBIEntry: 000000000000000000000010
Re-generated address: 000000000100110110000000
blkIndexInBitset from getRDBIEntry: 000000000000000001010010
Region Tag000000000000000000000001
rDBIIndex from getRDBIEntry: 000000000000000000000001
Re-generated address: 000000000011010010000000
blkIndexInBitset from getRDBIEntry: 000000000000000001011111
Region Tag000000000000000000010000
rDBIIndex from getRDBIEntry: 000000000000000000010000
Re-generated address: 000000100001011111000000
blkIndexInBitset from getRDBIEntry: 000000000000000000111000
Region Tag000000000000000000000010
rDBIIndex from getRDBIEntry: 000000000000000000000010
Re-generated address: 000000000100111000000000
blkIndexInBitset from getRDBIEntry: 000000000000000001111111
Region Tag000000000000000000010100
rDBIIndex from getRDBIEntry: 000000000000000000010100
Re-generated address: 000000101001111111000000
blkIndexInBitset from getRDBIEntry: 000000000000000001010000
Region Tag000000000000000000000001
rDBIIndex from getRDBIEntry: 000000000000000000000001
Re-generated address: 000000000011010000000000
blkIndexInBitset from getRDBIEntry: 000000000000000001010001
Region Tag000000000000000000000001
rDBIIndex from getRDBIEntry: 000000000000000000000001
Re-generated address: 000000000011010001000000
blkIndexInBitset from getRDBIEntry: 000000000000000001101000
Region Tag000000000000000000000001
rDBIIndex from getRDBIEntry: 000000000000000000000001
Re-generated address: 000000000011101000000000
blkIndexInBitset from getRDBIEntry: 000000000000000001010111
Region Tag000000000000000000000001
rDBIIndex from getRDBIEntry: 000000000000000000000001
Re-generated address: 000000000011010111000000
blkIndexInBitset from getRDBIEntry: 000000000000000001010011
Region Tag000000000000000000000001
rDBIIndex from getRDBIEntry: 000000000000000000000001
Re-generated address: 000000000011010011000000
blkIndexInBitset from getRDBIEntry: 000000000000000001010100
Region Tag000000000000000000000001
rDBIIndex from getRDBIEntry: 000000000000000000000001
Re-generated address: 000000000011010100000000
blkIndexInBitset from getRDBIEntry: 000000000000000001101001
Region Tag000000000000000000000001
rDBIIndex from getRDBIEntry: 000000000000000000000001
Re-generated address: 000000000011101001000000
blkIndexInBitset from getRDBIEntry: 000000000000000000101111
Region Tag000000000000000000000010
rDBIIndex from getRDBIEntry: 000000000000000000000010
Re-generated address: 000000000100101111000000
blkIndexInBitset from getRDBIEntry: 000000000000000000110011
Region Tag000000000000000000010101
rDBIIndex from getRDBIEntry: 000000000000000000010101
Re-generated address: 000000101010110011000000
blkIndexInBitset from getRDBIEntry: 000000000000000000110110
Region Tag000000000000000000010110
rDBIIndex from getRDBIEntry: 000000000000000000010110
Re-generated address: 000000101100110110000000
blkIndexInBitset from getRDBIEntry: 000000000000000000101010
Region Tag000000000000000000000111
rDBIIndex from getRDBIEntry: 000000000000000000000111
Re-generated address: 000000001110101010000000
blkIndexInBitset from getRDBIEntry: 000000000000000001001010
Region Tag000000000000000000000001
rDBIIndex from getRDBIEntry: 000000000000000000000001
Re-generated address: 000000000011001010000000
blkIndexInBitset from getRDBIEntry: 000000000000000000101011
Region Tag000000000000000000000111
rDBIIndex from getRDBIEntry: 000000000000000000000111
Re-generated address: 000000001110101011000000
blkIndexInBitset from getRDBIEntry: 000000000000000000110100
Region Tag000000000000000000010101
rDBIIndex from getRDBIEntry: 000000000000000000010101
Re-generated address: 000000101010110100000000
blkIndexInBitset from getRDBIEntry: 000000000000000000110000
Region Tag000000000000000000000010
rDBIIndex from getRDBIEntry: 000000000000000000000010
Re-generated address: 000000000100110000000000
blkIndexInBitset from getRDBIEntry: 000000000000000001111001
Region Tag000000000000000000010100
rDBIIndex from getRDBIEntry: 000000000000000000010100
Re-generated address: 000000101001111001000000
blkIndexInBitset from getRDBIEntry: 000000000000000000100110
Region Tag000000000000000000010101
rDBIIndex from getRDBIEntry: 000000000000000000010101
Re-generated address: 000000101010100110000000
blkIndexInBitset from getRDBIEntry: 000000000000000000010110
Region Tag000000000000000000001110
rDBIIndex from getRDBIEntry: 000000000000000000001110
Re-generated address: 000000011100010110000000
blkIndexInBitset from getRDBIEntry: 000000000000000000110101
Region Tag000000000000000000010110
rDBIIndex from getRDBIEntry: 000000000000000000010110
Re-generated address: 000000101100110101000000
blkIndexInBitset from getRDBIEntry: 000000000000000000010111
Region Tag000000000000000000001110
rDBIIndex from getRDBIEntry: 000000000000000000001110
Re-generated address: 000000011100010111000000
blkIndexInBitset from getRDBIEntry: 000000000000000001110010
Region Tag000000000000000000010100
rDBIIndex from getRDBIEntry: 000000000000000000010100
Re-generated address: 000000101001110010000000
blkIndexInBitset from getRDBIEntry: 000000000000000001000100
Region Tag000000000000000000010101
rDBIIndex from getRDBIEntry: 000000000000000000010101
Re-generated address: 000000101011000100000000
blkIndexInBitset from getRDBIEntry: 000000000000000000111001
Region Tag000000000000000000010110
rDBIIndex from getRDBIEntry: 000000000000000000010110
Re-generated address: 000000101100111001000000
blkIndexInBitset from getRDBIEntry: 000000000000000000011000
Region Tag000000000000000000001110
rDBIIndex from getRDBIEntry: 000000000000000000001110
Re-generated address: 000000011100011000000000
blkIndexInBitset from getRDBIEntry: 000000000000000001110100
Region Tag000000000000000000010100
rDBIIndex from getRDBIEntry: 000000000000000000010100
Re-generated address: 000000101001110100000000
blkIndexInBitset from getRDBIEntry: 000000000000000001110011
Region Tag000000000000000000010100
rDBIIndex from getRDBIEntry: 000000000000000000010100
Re-generated address: 000000101001110011000000
blkIndexInBitset from getRDBIEntry: 000000000000000000011001
Region Tag000000000000000000001110
rDBIIndex from getRDBIEntry: 000000000000000000001110
Re-generated address: 000000011100011001000000
blkIndexInBitset from getRDBIEntry: 000000000000000000110100
Region Tag000000000000000000010110
rDBIIndex from getRDBIEntry: 000000000000000000010110
Re-generated address: 000000101100110100000000
blkIndexInBitset from getRDBIEntry: 000000000000000000011010
Region Tag000000000000000000001110
rDBIIndex from getRDBIEntry: 000000000000000000001110
Re-generated address: 000000011100011010000000
blkIndexInBitset from getRDBIEntry: 000000000000000000011011
Region Tag000000000000000000001110
rDBIIndex from getRDBIEntry: 000000000000000000001110
Re-generated address: 000000011100011011000000
blkIndexInBitset from getRDBIEntry: 000000000000000000000110
Region Tag000000000000000000010001
rDBIIndex from getRDBIEntry: 000000000000000000010001
Re-generated address: 000000100010000110000000
blkIndexInBitset from getRDBIEntry: 000000000000000000000101
Region Tag000000000000000000010001
rDBIIndex from getRDBIEntry: 000000000000000000010001
Re-generated address: 000000100010000101000000
blkIndexInBitset from getRDBIEntry: 000000000000000000100000
Region Tag000000000000000000001110
rDBIIndex from getRDBIEntry: 000000000000000000001110
Re-generated address: 000000011100100000000000
blkIndexInBitset from getRDBIEntry: 000000000000000000111010
Region Tag000000000000000000010110
rDBIIndex from getRDBIEntry: 000000000000000000010110
Re-generated address: 000000101100111010000000
blkIndexInBitset from getRDBIEntry: 000000000000000000000100
Region Tag000000000000000000010001
rDBIIndex from getRDBIEntry: 000000000000000000010001
Re-generated address: 000000100010000100000000
blkIndexInBitset from getRDBIEntry: 000000000000000000100001
Region Tag000000000000000000001110
rDBIIndex from getRDBIEntry: 000000000000000000001110
Re-generated address: 000000011100100001000000
blkIndexInBitset from getRDBIEntry: 000000000000000000011111
Region Tag000000000000000000001110
rDBIIndex from getRDBIEntry: 000000000000000000001110
Re-generated address: 000000011100011111000000
blkIndexInBitset from getRDBIEntry: 000000000000000000111011
Region Tag000000000000000000010110
rDBIIndex from getRDBIEntry: 000000000000000000010110
Re-generated address: 000000101100111011000000
blkIndexInBitset from getRDBIEntry: 000000000000000000111100
Region Tag000000000000000000010110
rDBIIndex from getRDBIEntry: 000000000000000000010110
Re-generated address: 000000101100111100000000
blkIndexInBitset from getRDBIEntry: 000000000000000000111101
Region Tag000000000000000000010110
rDBIIndex from getRDBIEntry: 000000000000000000010110
Re-generated address: 000000101100111101000000
blkIndexInBitset from getRDBIEntry: 000000000000000000011110
Region Tag000000000000000000001110
rDBIIndex from getRDBIEntry: 000000000000000000001110
Re-generated address: 000000011100011110000000
blkIndexInBitset from getRDBIEntry: 000000000000000000111110
Region Tag000000000000000000010110
rDBIIndex from getRDBIEntry: 000000000000000000010110
Re-generated address: 000000101100111110000000
blkIndexInBitset from getRDBIEntry: 000000000000000000100100
Region Tag000000000000000000001110
rDBIIndex from getRDBIEntry: 000000000000000000001110
Re-generated address: 000000011100100100000000
blkIndexInBitset from getRDBIEntry: 000000000000000000011100
Region Tag000000000000000000001110
rDBIIndex from getRDBIEntry: 000000000000000000001110
Re-generated address: 000000011100011100000000
blkIndexInBitset from getRDBIEntry: 000000000000000000011101
Region Tag000000000000000000001110
rDBIIndex from getRDBIEntry: 000000000000000000001110
Re-generated address: 000000011100011101000000
blkIndexInBitset from getRDBIEntry: 000000000000000001010000
Region Tag000000000000000000001110
rDBIIndex from getRDBIEntry: 000000000000000000001110
Re-generated address: 000000011101010000000000
blkIndexInBitset from getRDBIEntry: 000000000000000001000011
Region Tag000000000000000000010101
rDBIIndex from getRDBIEntry: 000000000000000000010101
Re-generated address: 000000101011000011000000
blkIndexInBitset from getRDBIEntry: 000000000000000001010001
Region Tag000000000000000000001110
rDBIIndex from getRDBIEntry: 000000000000000000001110
Re-generated address: 000000011101010001000000
blkIndexInBitset from getRDBIEntry: 000000000000000000100010
Region Tag000000000000000000001110
rDBIIndex from getRDBIEntry: 000000000000000000001110
Re-generated address: 000000011100100010000000
blkIndexInBitset from getRDBIEntry: 000000000000000000000001
Region Tag000000000000000000001110
rDBIIndex from getRDBIEntry: 000000000000000000001110
Re-generated address: 000000011100000001000000
blkIndexInBitset from getRDBIEntry: 000000000000000000110011
Region Tag000000000000000000010110
rDBIIndex from getRDBIEntry: 000000000000000000010110
Re-generated address: 000000101100110011000000
blkIndexInBitset from getRDBIEntry: 000000000000000000000010
Region Tag000000000000000000001110
rDBIIndex from getRDBIEntry: 000000000000000000001110
Re-generated address: 000000011100000010000000
blkIndexInBitset from getRDBIEntry: 000000000000000000000011
Region Tag000000000000000000001110
rDBIIndex from getRDBIEntry: 000000000000000000001110
Re-generated address: 000000011100000011000000
blkIndexInBitset from getRDBIEntry: 000000000000000000000100
Region Tag000000000000000000001110
rDBIIndex from getRDBIEntry: 000000000000000000001110
Re-generated address: 000000011100000100000000
blkIndexInBitset from getRDBIEntry: 000000000000000000000101
Region Tag000000000000000000001110
rDBIIndex from getRDBIEntry: 000000000000000000001110
Re-generated address: 000000011100000101000000
blkIndexInBitset from getRDBIEntry: 000000000000000001110101
Region Tag000000000000000000010100
rDBIIndex from getRDBIEntry: 000000000000000000010100
Re-generated address: 000000101001110101000000
blkIndexInBitset from getRDBIEntry: 000000000000000001010010
Region Tag000000000000000000001110
rDBIIndex from getRDBIEntry: 000000000000000000001110
Re-generated address: 000000011101010010000000
blkIndexInBitset from getRDBIEntry: 000000000000000001000010
Region Tag000000000000000000010101
rDBIIndex from getRDBIEntry: 000000000000000000010101
Re-generated address: 000000101011000010000000
blkIndexInBitset from getRDBIEntry: 000000000000000000100011
Region Tag000000000000000000001110
rDBIIndex from getRDBIEntry: 000000000000000000001110
Re-generated address: 000000011100100011000000
blkIndexInBitset from getRDBIEntry: 000000000000000001000111
Region Tag000000000000000000000010
rDBIIndex from getRDBIEntry: 000000000000000000000010
Re-generated address: 000000000101000111000000
blkIndexInBitset from getRDBIEntry: 000000000000000001001000
Region Tag000000000000000000000010
rDBIIndex from getRDBIEntry: 000000000000000000000010
Re-generated address: 000000000101001000000000
blkIndexInBitset from getRDBIEntry: 000000000000000000110001
Region Tag000000000000000000010110
rDBIIndex from getRDBIEntry: 000000000000000000010110
Re-generated address: 000000101100110001000000
blkIndexInBitset from getRDBIEntry: 000000000000000000111110
Region Tag000000000000000000010101
rDBIIndex from getRDBIEntry: 000000000000000000010101
Re-generated address: 000000101010111110000000
blkIndexInBitset from getRDBIEntry: 000000000000000000111101
Region Tag000000000000000000010101
rDBIIndex from getRDBIEntry: 000000000000000000010101
Re-generated address: 000000101010111101000000
blkIndexInBitset from getRDBIEntry: 000000000000000001001001
Region Tag000000000000000000000010
rDBIIndex from getRDBIEntry: 000000000000000000000010
Re-generated address: 000000000101001001000000
blkIndexInBitset from getRDBIEntry: 000000000000000000110010
Region Tag000000000000000000010110
rDBIIndex from getRDBIEntry: 000000000000000000010110
Re-generated address: 000000101100110010000000
blkIndexInBitset from getRDBIEntry: 000000000000000001001010
Region Tag000000000000000000000010
rDBIIndex from getRDBIEntry: 000000000000000000000010
Re-generated address: 000000000101001010000000
blkIndexInBitset from getRDBIEntry: 000000000000000000110000
Region Tag000000000000000000010110
rDBIIndex from getRDBIEntry: 000000000000000000010110
Re-generated address: 000000101100110000000000
blkIndexInBitset from getRDBIEntry: 000000000000000000110010
Region Tag000000000000000000001110
rDBIIndex from getRDBIEntry: 000000000000000000001110
Re-generated address: 000000011100110010000000
blkIndexInBitset from getRDBIEntry: 000000000000000000110011
Region Tag000000000000000000001110
rDBIIndex from getRDBIEntry: 000000000000000000001110
Re-generated address: 000000011100110011000000
blkIndexInBitset from getRDBIEntry: 000000000000000001001100
Region Tag000000000000000000000010
rDBIIndex from getRDBIEntry: 000000000000000000000010
Re-generated address: 000000000101001100000000
blkIndexInBitset from getRDBIEntry: 000000000000000001101111
Region Tag000000000000000000010100
rDBIIndex from getRDBIEntry: 000000000000000000010100
Re-generated address: 000000101001101111000000
blkIndexInBitset from getRDBIEntry: 000000000000000001001111
Region Tag000000000000000000000010
rDBIIndex from getRDBIEntry: 000000000000000000000010
Re-generated address: 000000000101001111000000
blkIndexInBitset from getRDBIEntry: 000000000000000001011000
Region Tag000000000000000000000010
rDBIIndex from getRDBIEntry: 000000000000000000000010
Re-generated address: 000000000101011000000000
blkIndexInBitset from getRDBIEntry: 000000000000000001011001
Region Tag000000000000000000000010
rDBIIndex from getRDBIEntry: 000000000000000000000010
Re-generated address: 000000000101011001000000
blkIndexInBitset from getRDBIEntry: 000000000000000000101111
Region Tag000000000000000000000111
rDBIIndex from getRDBIEntry: 000000000000000000000111
Re-generated address: 000000001110101111000000
blkIndexInBitset from getRDBIEntry: 000000000000000000101111
Region Tag000000000000000000010110
rDBIIndex from getRDBIEntry: 000000000000000000010110
Re-generated address: 000000101100101111000000
blkIndexInBitset from getRDBIEntry: 000000000000000001111101
Region Tag000000000000000000001111
rDBIIndex from getRDBIEntry: 000000000000000000001111
Re-generated address: 000000011111111101000000
blkIndexInBitset from getRDBIEntry: 000000000000000000100001
Region Tag000000000000000000010001
rDBIIndex from getRDBIEntry: 000000000000000000010001
Re-generated address: 000000100010100001000000
blkIndexInBitset from getRDBIEntry: 000000000000000000110000
Region Tag000000000000000000000111
rDBIIndex from getRDBIEntry: 000000000000000000000111
Re-generated address: 000000001110110000000000
blkIndexInBitset from getRDBIEntry: 000000000000000000111000
Region Tag000000000000000000000111
rDBIIndex from getRDBIEntry: 000000000000000000000111
Re-generated address: 000000001110111000000000
blkIndexInBitset from getRDBIEntry: 000000000000000000111001
Region Tag000000000000000000000111
rDBIIndex from getRDBIEntry: 000000000000000000000111
Re-generated address: 000000001110111001000000
blkIndexInBitset from getRDBIEntry: 000000000000000001101010
Region Tag000000000000000000000001
rDBIIndex from getRDBIEntry: 000000000000000000000001
Re-generated address: 000000000011101010000000
blkIndexInBitset from getRDBIEntry: 000000000000000000111010
Region Tag000000000000000000001110
rDBIIndex from getRDBIEntry: 000000000000000000001110
Re-generated address: 000000011100111010000000
blkIndexInBitset from getRDBIEntry: 000000000000000000111001
Region Tag000000000000000000001110
rDBIIndex from getRDBIEntry: 000000000000000000001110
Re-generated address: 000000011100111001000000
blkIndexInBitset from getRDBIEntry: 000000000000000000110101
Region Tag000000000000000000001110
rDBIIndex from getRDBIEntry: 000000000000000000001110
Re-generated address: 000000011100110101000000
blkIndexInBitset from getRDBIEntry: 000000000000000000101110
Region Tag000000000000000000010110
rDBIIndex from getRDBIEntry: 000000000000000000010110
Re-generated address: 000000101100101110000000
blkIndexInBitset from getRDBIEntry: 000000000000000000110110
Region Tag000000000000000000001110
rDBIIndex from getRDBIEntry: 000000000000000000001110
Re-generated address: 000000011100110110000000
blkIndexInBitset from getRDBIEntry: 000000000000000000111000
Region Tag000000000000000000001110
rDBIIndex from getRDBIEntry: 000000000000000000001110
Re-generated address: 000000011100111000000000
blkIndexInBitset from getRDBIEntry: 000000000000000000110001
Region Tag000000000000000000000111
rDBIIndex from getRDBIEntry: 000000000000000000000111
Re-generated address: 000000001110110001000000
blkIndexInBitset from getRDBIEntry: 000000000000000001000110
Region Tag000000000000000000010101
rDBIIndex from getRDBIEntry: 000000000000000000010101
Re-generated address: 000000101011000110000000
blkIndexInBitset from getRDBIEntry: 000000000000000001010000
Region Tag000000000000000000010101
rDBIIndex from getRDBIEntry: 000000000000000000010101
Re-generated address: 000000101011010000000000
blkIndexInBitset from getRDBIEntry: 000000000000000000111011
Region Tag000000000000000000010000
rDBIIndex from getRDBIEntry: 000000000000000000010000
Re-generated address: 000000100000111011000000
blkIndexInBitset from getRDBIEntry: 000000000000000001011011
Region Tag000000000000000000010101
rDBIIndex from getRDBIEntry: 000000000000000000010101
Re-generated address: 000000101011011011000000
blkIndexInBitset from getRDBIEntry: 000000000000000000111100
Region Tag000000000000000000010000
rDBIIndex from getRDBIEntry: 000000000000000000010000
Re-generated address: 000000100000111100000000
blkIndexInBitset from getRDBIEntry: 000000000000000000111101
Region Tag000000000000000000010000
rDBIIndex from getRDBIEntry: 000000000000000000010000
Re-generated address: 000000100000111101000000
blkIndexInBitset from getRDBIEntry: 000000000000000001010001
Region Tag000000000000000000010101
rDBIIndex from getRDBIEntry: 000000000000000000010101
Re-generated address: 000000101011010001000000
blkIndexInBitset from getRDBIEntry: 000000000000000000110010
Region Tag000000000000000000000111
rDBIIndex from getRDBIEntry: 000000000000000000000111
Re-generated address: 000000001110110010000000
blkIndexInBitset from getRDBIEntry: 000000000000000001000101
Region Tag000000000000000000010101
rDBIIndex from getRDBIEntry: 000000000000000000010101
Re-generated address: 000000101011000101000000
blkIndexInBitset from getRDBIEntry: 000000000000000001010100
Region Tag000000000000000000010101
rDBIIndex from getRDBIEntry: 000000000000000000010101
Re-generated address: 000000101011010100000000
blkIndexInBitset from getRDBIEntry: 000000000000000000110011
Region Tag000000000000000000000111
rDBIIndex from getRDBIEntry: 000000000000000000000111
Re-generated address: 000000001110110011000000
blkIndexInBitset from getRDBIEntry: 000000000000000001010111
Region Tag000000000000000000010101
rDBIIndex from getRDBIEntry: 000000000000000000010101
Re-generated address: 000000101011010111000000
blkIndexInBitset from getRDBIEntry: 000000000000000001011000
Region Tag000000000000000000010101
rDBIIndex from getRDBIEntry: 000000000000000000010101
Re-generated address: 000000101011011000000000
blkIndexInBitset from getRDBIEntry: 000000000000000001011001
Region Tag000000000000000000010101
rDBIIndex from getRDBIEntry: 000000000000000000010101
Re-generated address: 000000101011011001000000
blkIndexInBitset from getRDBIEntry: 000000000000000001011010
Region Tag000000000000000000010101
rDBIIndex from getRDBIEntry: 000000000000000000010101
Re-generated address: 000000101011011010000000
blkIndexInBitset from getRDBIEntry: 000000000000000001010011
Region Tag000000000000000000010101
rDBIIndex from getRDBIEntry: 000000000000000000010101
Re-generated address: 000000101011010011000000
blkIndexInBitset from getRDBIEntry: 000000000000000000110100
Region Tag000000000000000000000111
rDBIIndex from getRDBIEntry: 000000000000000000000111
Re-generated address: 000000001110110100000000
blkIndexInBitset from getRDBIEntry: 000000000000000000000001
Region Tag000000000000000000010101
rDBIIndex from getRDBIEntry: 000000000000000000010101
Re-generated address: 000000101010000001000000
blkIndexInBitset from getRDBIEntry: 000000000000000000111100
Region Tag000000000000000000000111
rDBIIndex from getRDBIEntry: 000000000000000000000111
Re-generated address: 000000001110111100000000
blkIndexInBitset from getRDBIEntry: 000000000000000000111101
Region Tag000000000000000000000111
rDBIIndex from getRDBIEntry: 000000000000000000000111
Re-generated address: 000000001110111101000000
blkIndexInBitset from getRDBIEntry: 000000000000000000110101
Region Tag000000000000000000000111
rDBIIndex from getRDBIEntry: 000000000000000000000111
Re-generated address: 000000001110110101000000
blkIndexInBitset from getRDBIEntry: 000000000000000000110110
Region Tag000000000000000000000111
rDBIIndex from getRDBIEntry: 000000000000000000000111
Re-generated address: 000000001110110110000000
blkIndexInBitset from getRDBIEntry: 000000000000000001011010
Region Tag000000000000000000000010
rDBIIndex from getRDBIEntry: 000000000000000000000010
Re-generated address: 000000000101011010000000
blkIndexInBitset from getRDBIEntry: 000000000000000000101100
Region Tag000000000000000000000111
rDBIIndex from getRDBIEntry: 000000000000000000000111
Re-generated address: 000000001110101100000000
blkIndexInBitset from getRDBIEntry: 000000000000000000101101
Region Tag000000000000000000000111
rDBIIndex from getRDBIEntry: 000000000000000000000111
Re-generated address: 000000001110101101000000
blkIndexInBitset from getRDBIEntry: 000000000000000001110010
Region Tag000000000000000000000001
rDBIIndex from getRDBIEntry: 000000000000000000000001
Re-generated address: 000000000011110010000000
blkIndexInBitset from getRDBIEntry: 000000000000000000100101
Region Tag000000000000000000010101
rDBIIndex from getRDBIEntry: 000000000000000000010101
Re-generated address: 000000101010100101000000
blkIndexInBitset from getRDBIEntry: 000000000000000000101110
Region Tag000000000000000000000111
rDBIIndex from getRDBIEntry: 000000000000000000000111
Re-generated address: 000000001110101110000000
blkIndexInBitset from getRDBIEntry: 000000000000000001010010
Region Tag000000000000000000010101
rDBIIndex from getRDBIEntry: 000000000000000000010101
Re-generated address: 000000101011010010000000
blkIndexInBitset from getRDBIEntry: 000000000000000001011011
Region Tag000000000000000000000010
rDBIIndex from getRDBIEntry: 000000000000000000000010
Re-generated address: 000000000101011011000000
blkIndexInBitset from getRDBIEntry: 000000000000000001011100
Region Tag000000000000000000000010
rDBIIndex from getRDBIEntry: 000000000000000000000010
Re-generated address: 000000000101011100000000
blkIndexInBitset from getRDBIEntry: 000000000000000000000001
Region Tag000000000000000000000000
rDBIIndex from getRDBIEntry: 000000000000000000000000
Re-generated address: 000000000000000001000000
blkIndexInBitset from getRDBIEntry: 000000000000000001111111
Region Tag000000000000000000000010
rDBIIndex from getRDBIEntry: 000000000000000000000010
Re-generated address: 000000000101111111000000
blkIndexInBitset from getRDBIEntry: 000000000000000000000010
Region Tag000000000000000000000011
rDBIIndex from getRDBIEntry: 000000000000000000000011
Re-generated address: 000000000110000010000000
blkIndexInBitset from getRDBIEntry: 000000000000000000000010
Region Tag000000000000000000000000
rDBIIndex from getRDBIEntry: 000000000000000000000000
Re-generated address: 000000000000000010000000
blkIndexInBitset from getRDBIEntry: 000000000000000001000000
Region Tag000000000000000000010101
rDBIIndex from getRDBIEntry: 000000000000000000010101
Re-generated address: 000000101011000000000000
blkIndexInBitset from getRDBIEntry: 000000000000000000000000
Region Tag000000000000000000000011
rDBIIndex from getRDBIEntry: 000000000000000000000011
Re-generated address: 000000000110000000000000
blkIndexInBitset from getRDBIEntry: 000000000000000000000011
Region Tag000000000000000000000000
rDBIIndex from getRDBIEntry: 000000000000000000000000
Re-generated address: 000000000000000011000000
blkIndexInBitset from getRDBIEntry: 000000000000000000000001
Region Tag000000000000000000000011
rDBIIndex from getRDBIEntry: 000000000000000000000011
Re-generated address: 000000000110000001000000
blkIndexInBitset from getRDBIEntry: 000000000000000000000100
Region Tag000000000000000000000000
rDBIIndex from getRDBIEntry: 000000000000000000000000
Re-generated address: 000000000000000100000000
blkIndexInBitset from getRDBIEntry: 000000000000000000000100
Region Tag000000000000000000000011
rDBIIndex from getRDBIEntry: 000000000000000000000011
Re-generated address: 000000000110000100000000
blkIndexInBitset from getRDBIEntry: 000000000000000000000101
Region Tag000000000000000000000000
rDBIIndex from getRDBIEntry: 000000000000000000000000
Re-generated address: 000000000000000101000000
blkIndexInBitset from getRDBIEntry: 000000000000000000000110
Region Tag000000000000000000000000
rDBIIndex from getRDBIEntry: 000000000000000000000000
Re-generated address: 000000000000000110000000
blkIndexInBitset from getRDBIEntry: 000000000000000001011101
Region Tag000000000000000000000010
rDBIIndex from getRDBIEntry: 000000000000000000000010
Re-generated address: 000000000101011101000000
blkIndexInBitset from getRDBIEntry: 000000000000000000000111
Region Tag000000000000000000000000
rDBIIndex from getRDBIEntry: 000000000000000000000000
Re-generated address: 000000000000000111000000
blkIndexInBitset from getRDBIEntry: 000000000000000000001000
Region Tag000000000000000000000000
rDBIIndex from getRDBIEntry: 000000000000000000000000
Re-generated address: 000000000000001000000000
blkIndexInBitset from getRDBIEntry: 000000000000000001111110
Region Tag000000000000000000000010
rDBIIndex from getRDBIEntry: 000000000000000000000010
Re-generated address: 000000000101111110000000
blkIndexInBitset from getRDBIEntry: 000000000000000001011110
Region Tag000000000000000000000010
rDBIIndex from getRDBIEntry: 000000000000000000000010
Re-generated address: 000000000101011110000000
blkIndexInBitset from getRDBIEntry: 000000000000000001011111
Region Tag000000000000000000000010
rDBIIndex from getRDBIEntry: 000000000000000000000010
Re-generated address: 000000000101011111000000
blkIndexInBitset from getRDBIEntry: 000000000000000001010110
Region Tag000000000000000000010101
rDBIIndex from getRDBIEntry: 000000000000000000010101
Re-generated address: 000000101011010110000000
blkIndexInBitset from getRDBIEntry: 000000000000000001100000
Region Tag000000000000000000000010
rDBIIndex from getRDBIEntry: 000000000000000000000010
Re-generated address: 000000000101100000000000
blkIndexInBitset from getRDBIEntry: 000000000000000000101010
Region Tag000000000000000000001111
rDBIIndex from getRDBIEntry: 000000000000000000001111
Re-generated address: 000000011110101010000000
blkIndexInBitset from getRDBIEntry: 000000000000000000101011
Region Tag000000000000000000001111
rDBIIndex from getRDBIEntry: 000000000000000000001111
Re-generated address: 000000011110101011000000
blkIndexInBitset from getRDBIEntry: 000000000000000000101100
Region Tag000000000000000000001111
rDBIIndex from getRDBIEntry: 000000000000000000001111
Re-generated address: 000000011110101100000000
blkIndexInBitset from getRDBIEntry: 000000000000000000010011
Region Tag000000000000000000010001
rDBIIndex from getRDBIEntry: 000000000000000000010001
Re-generated address: 000000100010010011000000
blkIndexInBitset from getRDBIEntry: 000000000000000001100110
Region Tag000000000000000000001111
rDBIIndex from getRDBIEntry: 000000000000000000001111
Re-generated address: 000000011111100110000000
blkIndexInBitset from getRDBIEntry: 000000000000000001011110
Region Tag000000000000000000000001
rDBIIndex from getRDBIEntry: 000000000000000000000001
Re-generated address: 000000000011011110000000
blkIndexInBitset from getRDBIEntry: 000000000000000001100111
Region Tag000000000000000000001111
rDBIIndex from getRDBIEntry: 000000000000000000001111
Re-generated address: 000000011111100111000000
blkIndexInBitset from getRDBIEntry: 000000000000000001111010
Region Tag000000000000000000001111
rDBIIndex from getRDBIEntry: 000000000000000000001111
Re-generated address: 000000011111111010000000
blkIndexInBitset from getRDBIEntry: 000000000000000001111011
Region Tag000000000000000000001111
rDBIIndex from getRDBIEntry: 000000000000000000001111
Re-generated address: 000000011111111011000000
blkIndexInBitset from getRDBIEntry: 000000000000000001100001
Region Tag000000000000000000000010
rDBIIndex from getRDBIEntry: 000000000000000000000010
Re-generated address: 000000000101100001000000
blkIndexInBitset from getRDBIEntry: 000000000000000000111111
Region Tag000000000000000000010101
rDBIIndex from getRDBIEntry: 000000000000000000010101
Re-generated address: 000000101010111111000000
blkIndexInBitset from getRDBIEntry: 000000000000000001100010
Region Tag000000000000000000000010
rDBIIndex from getRDBIEntry: 000000000000000000000010
Re-generated address: 000000000101100010000000
blkIndexInBitset from getRDBIEntry: 000000000000000001111000
Region Tag000000000000000000000000
rDBIIndex from getRDBIEntry: 000000000000000000000000
Re-generated address: 000000000001111000000000
blkIndexInBitset from getRDBIEntry: 000000000000000001100011
Region Tag000000000000000000000010
rDBIIndex from getRDBIEntry: 000000000000000000000010
Re-generated address: 000000000101100011000000
blkIndexInBitset from getRDBIEntry: 000000000000000001001000
Region Tag000000000000000000010101
rDBIIndex from getRDBIEntry: 000000000000000000010101
Re-generated address: 000000101011001000000000
blkIndexInBitset from getRDBIEntry: 000000000000000001111001
Region Tag000000000000000000000000
rDBIIndex from getRDBIEntry: 000000000000000000000000
Re-generated address: 000000000001111001000000
blkIndexInBitset from getRDBIEntry: 000000000000000001001001
Region Tag000000000000000000010101
rDBIIndex from getRDBIEntry: 000000000000000000010101
Re-generated address: 000000101011001001000000
blkIndexInBitset from getRDBIEntry: 000000000000000001001010
Region Tag000000000000000000010101
rDBIIndex from getRDBIEntry: 000000000000000000010101
Re-generated address: 000000101011001010000000
blkIndexInBitset from getRDBIEntry: 000000000000000001111010
Region Tag000000000000000000000000
rDBIIndex from getRDBIEntry: 000000000000000000000000
Re-generated address: 000000000001111010000000
blkIndexInBitset from getRDBIEntry: 000000000000000001100100
Region Tag000000000000000000000010
rDBIIndex from getRDBIEntry: 000000000000000000000010
Re-generated address: 000000000101100100000000
blkIndexInBitset from getRDBIEntry: 000000000000000000000101
Region Tag000000000000000000000011
rDBIIndex from getRDBIEntry: 000000000000000000000011
Re-generated address: 000000000110000101000000
blkIndexInBitset from getRDBIEntry: 000000000000000000000110
Region Tag000000000000000000000011
rDBIIndex from getRDBIEntry: 000000000000000000000011
Re-generated address: 000000000110000110000000
blkIndexInBitset from getRDBIEntry: 000000000000000000000111
Region Tag000000000000000000000011
rDBIIndex from getRDBIEntry: 000000000000000000000011
Re-generated address: 000000000110000111000000
blkIndexInBitset from getRDBIEntry: 000000000000000001000111
Region Tag000000000000000000010101
rDBIIndex from getRDBIEntry: 000000000000000000010101
Re-generated address: 000000101011000111000000
blkIndexInBitset from getRDBIEntry: 000000000000000001111011
Region Tag000000000000000000000000
rDBIIndex from getRDBIEntry: 000000000000000000000000
Re-generated address: 000000000001111011000000
blkIndexInBitset from getRDBIEntry: 000000000000000001111100
Region Tag000000000000000000000000
rDBIIndex from getRDBIEntry: 000000000000000000000000
Re-generated address: 000000000001111100000000
blkIndexInBitset from getRDBIEntry: 000000000000000001111101
Region Tag000000000000000000000000
rDBIIndex from getRDBIEntry: 000000000000000000000000
Re-generated address: 000000000001111101000000
blkIndexInBitset from getRDBIEntry: 000000000000000001001011
Region Tag000000000000000000010101
rDBIIndex from getRDBIEntry: 000000000000000000010101
Re-generated address: 000000101011001011000000
blkIndexInBitset from getRDBIEntry: 000000000000000001111110
Region Tag000000000000000000000000
rDBIIndex from getRDBIEntry: 000000000000000000000000
Re-generated address: 000000000001111110000000
blkIndexInBitset from getRDBIEntry: 000000000000000001001100
Region Tag000000000000000000010101
rDBIIndex from getRDBIEntry: 000000000000000000010101
Re-generated address: 000000101011001100000000
blkIndexInBitset from getRDBIEntry: 000000000000000001100110
Region Tag000000000000000000000010
rDBIIndex from getRDBIEntry: 000000000000000000000010
Re-generated address: 000000000101100110000000
blkIndexInBitset from getRDBIEntry: 000000000000000001100111
Region Tag000000000000000000000010
rDBIIndex from getRDBIEntry: 000000000000000000000010
Re-generated address: 000000000101100111000000
blkIndexInBitset from getRDBIEntry: 000000000000000001101000
Region Tag000000000000000000000010
rDBIIndex from getRDBIEntry: 000000000000000000000010
Re-generated address: 000000000101101000000000
blkIndexInBitset from getRDBIEntry: 000000000000000001101001
Region Tag000000000000000000000010
rDBIIndex from getRDBIEntry: 000000000000000000000010
Re-generated address: 000000000101101001000000
blkIndexInBitset from getRDBIEntry: 000000000000000000001010
Region Tag000000000000000000000000
rDBIIndex from getRDBIEntry: 000000000000000000000000
Re-generated address: 000000000000001010000000
blkIndexInBitset from getRDBIEntry: 000000000000000001101010
Region Tag000000000000000000000010
rDBIIndex from getRDBIEntry: 000000000000000000000010
Re-generated address: 000000000101101010000000
blkIndexInBitset from getRDBIEntry: 000000000000000001011100
Region Tag000000000000000000010101
rDBIIndex from getRDBIEntry: 000000000000000000010101
Re-generated address: 000000101011011100000000
blkIndexInBitset from getRDBIEntry: 000000000000000001100111
Region Tag000000000000000000010101
rDBIIndex from getRDBIEntry: 000000000000000000010101
Re-generated address: 000000101011100111000000
blkIndexInBitset from getRDBIEntry: 000000000000000001101110
Region Tag000000000000000000010101
rDBIIndex from getRDBIEntry: 000000000000000000010101
Re-generated address: 000000101011101110000000
blkIndexInBitset from getRDBIEntry: 000000000000000001101101
Region Tag000000000000000000010101
rDBIIndex from getRDBIEntry: 000000000000000000010101
Re-generated address: 000000101011101101000000
blkIndexInBitset from getRDBIEntry: 000000000000000001101000
Region Tag000000000000000000010101
rDBIIndex from getRDBIEntry: 000000000000000000010101
Re-generated address: 000000101011101000000000
blkIndexInBitset from getRDBIEntry: 000000000000000001101011
Region Tag000000000000000000010101
rDBIIndex from getRDBIEntry: 000000000000000000010101
Re-generated address: 000000101011101011000000
blkIndexInBitset from getRDBIEntry: 000000000000000001101001
Region Tag000000000000000000010101
rDBIIndex from getRDBIEntry: 000000000000000000010101
Re-generated address: 000000101011101001000000
blkIndexInBitset from getRDBIEntry: 000000000000000001101010
Region Tag000000000000000000010101
rDBIIndex from getRDBIEntry: 000000000000000000010101
Re-generated address: 000000101011101010000000
blkIndexInBitset from getRDBIEntry: 000000000000000000111010
Region Tag000000000000000000000111
rDBIIndex from getRDBIEntry: 000000000000000000000111
Re-generated address: 000000001110111010000000
blkIndexInBitset from getRDBIEntry: 000000000000000000111011
Region Tag000000000000000000000111
rDBIIndex from getRDBIEntry: 000000000000000000000111
Re-generated address: 000000001110111011000000
blkIndexInBitset from getRDBIEntry: 000000000000000001000000
Region Tag000000000000000000010110
rDBIIndex from getRDBIEntry: 000000000000000000010110
Re-generated address: 000000101101000000000000
blkIndexInBitset from getRDBIEntry: 000000000000000001100110
Region Tag000000000000000000010101
rDBIIndex from getRDBIEntry: 000000000000000000010101
Re-generated address: 000000101011100110000000
blkIndexInBitset from getRDBIEntry: 000000000000000001101011
Region Tag000000000000000000000010
rDBIIndex from getRDBIEntry: 000000000000000000000010
Re-generated address: 000000000101101011000000
blkIndexInBitset from getRDBIEntry: 000000000000000001101100
Region Tag000000000000000000000010
rDBIIndex from getRDBIEntry: 000000000000000000000010
Re-generated address: 000000000101101100000000
blkIndexInBitset from getRDBIEntry: 000000000000000001101101
Region Tag000000000000000000000010
rDBIIndex from getRDBIEntry: 000000000000000000000010
Re-generated address: 000000000101101101000000
blkIndexInBitset from getRDBIEntry: 000000000000000001101110
Region Tag000000000000000000000010
rDBIIndex from getRDBIEntry: 000000000000000000000010
Re-generated address: 000000000101101110000000
blkIndexInBitset from getRDBIEntry: 000000000000000001101111
Region Tag000000000000000000000010
rDBIIndex from getRDBIEntry: 000000000000000000000010
Re-generated address: 000000000101101111000000
blkIndexInBitset from getRDBIEntry: 000000000000000001011101
Region Tag000000000000000000010101
rDBIIndex from getRDBIEntry: 000000000000000000010101
Re-generated address: 000000101011011101000000
blkIndexInBitset from getRDBIEntry: 000000000000000001100100
Region Tag000000000000000000000011
rDBIIndex from getRDBIEntry: 000000000000000000000011
Re-generated address: 000000000111100100000000
blkIndexInBitset from getRDBIEntry: 000000000000000001100101
Region Tag000000000000000000000011
rDBIIndex from getRDBIEntry: 000000000000000000000011
Re-generated address: 000000000111100101000000
blkIndexInBitset from getRDBIEntry: 000000000000000001110001
Region Tag000000000000000000000010
rDBIIndex from getRDBIEntry: 000000000000000000000010
Re-generated address: 000000000101110001000000
blkIndexInBitset from getRDBIEntry: 000000000000000001110010
Region Tag000000000000000000000010
rDBIIndex from getRDBIEntry: 000000000000000000000010
Re-generated address: 000000000101110010000000
blkIndexInBitset from getRDBIEntry: 000000000000000001110011
Region Tag000000000000000000000010
rDBIIndex from getRDBIEntry: 000000000000000000000010
Re-generated address: 000000000101110011000000
blkIndexInBitset from getRDBIEntry: 000000000000000001110100
Region Tag000000000000000000000010
rDBIIndex from getRDBIEntry: 000000000000000000000010
Re-generated address: 000000000101110100000000
blkIndexInBitset from getRDBIEntry: 000000000000000001011111
Region Tag000000000000000000010101
rDBIIndex from getRDBIEntry: 000000000000000000010101
Re-generated address: 000000101011011111000000
blkIndexInBitset from getRDBIEntry: 000000000000000001110101
Region Tag000000000000000000000010
rDBIIndex from getRDBIEntry: 000000000000000000000010
Re-generated address: 000000000101110101000000
blkIndexInBitset from getRDBIEntry: 000000000000000001100011
Region Tag000000000000000000010101
rDBIIndex from getRDBIEntry: 000000000000000000010101
Re-generated address: 000000101011100011000000
blkIndexInBitset from getRDBIEntry: 000000000000000001110110
Region Tag000000000000000000000010
rDBIIndex from getRDBIEntry: 000000000000000000000010
Re-generated address: 000000000101110110000000
blkIndexInBitset from getRDBIEntry: 000000000000000001110111
Region Tag000000000000000000000010
rDBIIndex from getRDBIEntry: 000000000000000000000010
Re-generated address: 000000000101110111000000
blkIndexInBitset from getRDBIEntry: 000000000000000001100000
Region Tag000000000000000000010101
rDBIIndex from getRDBIEntry: 000000000000000000010101
Re-generated address: 000000101011100000000000
blkIndexInBitset from getRDBIEntry: 000000000000000001111000
Region Tag000000000000000000000010
rDBIIndex from getRDBIEntry: 000000000000000000000010
Re-generated address: 000000000101111000000000
blkIndexInBitset from getRDBIEntry: 000000000000000001100001
Region Tag000000000000000000010101
rDBIIndex from getRDBIEntry: 000000000000000000010101
Re-generated address: 000000101011100001000000
blkIndexInBitset from getRDBIEntry: 000000000000000001111001
Region Tag000000000000000000000010
rDBIIndex from getRDBIEntry: 000000000000000000000010
Re-generated address: 000000000101111001000000
blkIndexInBitset from getRDBIEntry: 000000000000000001111010
Region Tag000000000000000000000010
rDBIIndex from getRDBIEntry: 000000000000000000000010
Re-generated address: 000000000101111010000000
blkIndexInBitset from getRDBIEntry: 000000000000000001011110
Region Tag000000000000000000010101
rDBIIndex from getRDBIEntry: 000000000000000000010101
Re-generated address: 000000101011011110000000
blkIndexInBitset from getRDBIEntry: 000000000000000001111011
Region Tag000000000000000000000010
rDBIIndex from getRDBIEntry: 000000000000000000000010
Re-generated address: 000000000101111011000000
blkIndexInBitset from getRDBIEntry: 000000000000000001111100
Region Tag000000000000000000000010
rDBIIndex from getRDBIEntry: 000000000000000000000010
Re-generated address: 000000000101111100000000
blkIndexInBitset from getRDBIEntry: 000000000000000001111101
Region Tag000000000000000000000010
rDBIIndex from getRDBIEntry: 000000000000000000000010
Re-generated address: 000000000101111101000000
blkIndexInBitset from getRDBIEntry: 000000000000000000101011
Region Tag000000000000000000001110
rDBIIndex from getRDBIEntry: 000000000000000000001110
Re-generated address: 000000011100101011000000
blkIndexInBitset from getRDBIEntry: 000000000000000000101100
Region Tag000000000000000000001110
rDBIIndex from getRDBIEntry: 000000000000000000001110
Re-generated address: 000000011100101100000000
blkIndexInBitset from getRDBIEntry: 000000000000000000101000
Region Tag000000000000000000010110
rDBIIndex from getRDBIEntry: 000000000000000000010110
Re-generated address: 000000101100101000000000
blkIndexInBitset from getRDBIEntry: 000000000000000000101111
Region Tag000000000000000000001110
rDBIIndex from getRDBIEntry: 000000000000000000001110
Re-generated address: 000000011100101111000000
blkIndexInBitset from getRDBIEntry: 000000000000000000010100
Region Tag000000000000000000001111
rDBIIndex from getRDBIEntry: 000000000000000000001111
Re-generated address: 000000011110010100000000
blkIndexInBitset from getRDBIEntry: 000000000000000000101011
Region Tag000000000000000000010110
rDBIIndex from getRDBIEntry: 000000000000000000010110
Re-generated address: 000000101100101011000000
blkIndexInBitset from getRDBIEntry: 000000000000000000110000
Region Tag000000000000000000001110
rDBIIndex from getRDBIEntry: 000000000000000000001110
Re-generated address: 000000011100110000000000
blkIndexInBitset from getRDBIEntry: 000000000000000000101110
Region Tag000000000000000000001110
rDBIIndex from getRDBIEntry: 000000000000000000001110
Re-generated address: 000000011100101110000000
blkIndexInBitset from getRDBIEntry: 000000000000000000011111
Region Tag000000000000000000000011
rDBIIndex from getRDBIEntry: 000000000000000000000011
Re-generated address: 000000000110011111000000
blkIndexInBitset from getRDBIEntry: 000000000000000000100000
Region Tag000000000000000000000011
rDBIIndex from getRDBIEntry: 000000000000000000000011
Re-generated address: 000000000110100000000000
blkIndexInBitset from getRDBIEntry: 000000000000000001010100
Region Tag000000000000000000000101
rDBIIndex from getRDBIEntry: 000000000000000000000101
Re-generated address: 000000001011010100000000
blkIndexInBitset from getRDBIEntry: 000000000000000001010101
Region Tag000000000000000000000101
rDBIIndex from getRDBIEntry: 000000000000000000000101
Re-generated address: 000000001011010101000000
blkIndexInBitset from getRDBIEntry: 000000000000000000001000
Region Tag000000000000000000001001
rDBIIndex from getRDBIEntry: 000000000000000000001001
Re-generated address: 000000010010001000000000
blkIndexInBitset from getRDBIEntry: 000000000000000000101101
Region Tag000000000000000000010110
rDBIIndex from getRDBIEntry: 000000000000000000010110
Re-generated address: 000000101100101101000000
blkIndexInBitset from getRDBIEntry: 000000000000000000101100
Region Tag000000000000000000010110
rDBIIndex from getRDBIEntry: 000000000000000000010110
Re-generated address: 000000101100101100000000
blkIndexInBitset from getRDBIEntry: 000000000000000000001001
Region Tag000000000000000000001001
rDBIIndex from getRDBIEntry: 000000000000000000001001
Re-generated address: 000000010010001001000000
blkIndexInBitset from getRDBIEntry: 000000000000000000001010
Region Tag000000000000000000001001
rDBIIndex from getRDBIEntry: 000000000000000000001001
Re-generated address: 000000010010001010000000
blkIndexInBitset from getRDBIEntry: 000000000000000000010010
Region Tag000000000000000000001001
rDBIIndex from getRDBIEntry: 000000000000000000001001
Re-generated address: 000000010010010010000000
blkIndexInBitset from getRDBIEntry: 000000000000000000010011
Region Tag000000000000000000001001
rDBIIndex from getRDBIEntry: 000000000000000000001001
Re-generated address: 000000010010010011000000
blkIndexInBitset from getRDBIEntry: 000000000000000000001100
Region Tag000000000000000000001111
rDBIIndex from getRDBIEntry: 000000000000000000001111
Re-generated address: 000000011110001100000000
blkIndexInBitset from getRDBIEntry: 000000000000000000001101
Region Tag000000000000000000001111
rDBIIndex from getRDBIEntry: 000000000000000000001111
Re-generated address: 000000011110001101000000
blkIndexInBitset from getRDBIEntry: 000000000000000000100100
Region Tag000000000000000000001001
rDBIIndex from getRDBIEntry: 000000000000000000001001
Re-generated address: 000000010010100100000000
blkIndexInBitset from getRDBIEntry: 000000000000000000100101
Region Tag000000000000000000001001
rDBIIndex from getRDBIEntry: 000000000000000000001001
Re-generated address: 000000010010100101000000
blkIndexInBitset from getRDBIEntry: 000000000000000000010001
Region Tag000000000000000000001001
rDBIIndex from getRDBIEntry: 000000000000000000001001
Re-generated address: 000000010010010001000000
blkIndexInBitset from getRDBIEntry: 000000000000000000010100
Region Tag000000000000000000001001
rDBIIndex from getRDBIEntry: 000000000000000000001001
Re-generated address: 000000010010010100000000
blkIndexInBitset from getRDBIEntry: 000000000000000000010101
Region Tag000000000000000000001001
rDBIIndex from getRDBIEntry: 000000000000000000001001
Re-generated address: 000000010010010101000000
blkIndexInBitset from getRDBIEntry: 000000000000000000100011
Region Tag000000000000000000001001
rDBIIndex from getRDBIEntry: 000000000000000000001001
Re-generated address: 000000010010100011000000
blkIndexInBitset from getRDBIEntry: 000000000000000000100110
Region Tag000000000000000000001001
rDBIIndex from getRDBIEntry: 000000000000000000001001
Re-generated address: 000000010010100110000000
blkIndexInBitset from getRDBIEntry: 000000000000000000100111
Region Tag000000000000000000001001
rDBIIndex from getRDBIEntry: 000000000000000000001001
Re-generated address: 000000010010100111000000
blkIndexInBitset from getRDBIEntry: 000000000000000000110010
Region Tag000000000000000000010000
rDBIIndex from getRDBIEntry: 000000000000000000010000
Re-generated address: 000000100000110010000000
blkIndexInBitset from getRDBIEntry: 000000000000000000110100
Region Tag000000000000000000010001
rDBIIndex from getRDBIEntry: 000000000000000000010001
Re-generated address: 000000100010110100000000
blkIndexInBitset from getRDBIEntry: 000000000000000000110011
Region Tag000000000000000000010000
rDBIIndex from getRDBIEntry: 000000000000000000010000
Re-generated address: 000000100000110011000000
blkIndexInBitset from getRDBIEntry: 000000000000000000110100
Region Tag000000000000000000010000
rDBIIndex from getRDBIEntry: 000000000000000000010000
Re-generated address: 000000100000110100000000
blkIndexInBitset from getRDBIEntry: 000000000000000000101000
Region Tag000000000000000000001001
rDBIIndex from getRDBIEntry: 000000000000000000001001
Re-generated address: 000000010010101000000000
blkIndexInBitset from getRDBIEntry: 000000000000000001010110
Region Tag000000000000000000000101
rDBIIndex from getRDBIEntry: 000000000000000000000101
Re-generated address: 000000001011010110000000
blkIndexInBitset from getRDBIEntry: 000000000000000001101111
Region Tag000000000000000000010101
rDBIIndex from getRDBIEntry: 000000000000000000010101
Re-generated address: 000000101011101111000000
blkIndexInBitset from getRDBIEntry: 000000000000000001010111
Region Tag000000000000000000000101
rDBIIndex from getRDBIEntry: 000000000000000000000101
Re-generated address: 000000001011010111000000
blkIndexInBitset from getRDBIEntry: 000000000000000001110000
Region Tag000000000000000000010101
rDBIIndex from getRDBIEntry: 000000000000000000010101
Re-generated address: 000000101011110000000000
blkIndexInBitset from getRDBIEntry: 000000000000000001011000
Region Tag000000000000000000000101
rDBIIndex from getRDBIEntry: 000000000000000000000101
Re-generated address: 000000001011011000000000
blkIndexInBitset from getRDBIEntry: 000000000000000000101110
Region Tag000000000000000000010000
rDBIIndex from getRDBIEntry: 000000000000000000010000
Re-generated address: 000000100000101110000000
blkIndexInBitset from getRDBIEntry: 000000000000000000101111
Region Tag000000000000000000010000
rDBIIndex from getRDBIEntry: 000000000000000000010000
Re-generated address: 000000100000101111000000
blkIndexInBitset from getRDBIEntry: 000000000000000000110001
Region Tag000000000000000000010000
rDBIIndex from getRDBIEntry: 000000000000000000010000
Re-generated address: 000000100000110001000000
blkIndexInBitset from getRDBIEntry: 000000000000000001011001
Region Tag000000000000000000000101
rDBIIndex from getRDBIEntry: 000000000000000000000101
Re-generated address: 000000001011011001000000
blkIndexInBitset from getRDBIEntry: 000000000000000001110001
Region Tag000000000000000000010101
rDBIIndex from getRDBIEntry: 000000000000000000010101
Re-generated address: 000000101011110001000000
blkIndexInBitset from getRDBIEntry: 000000000000000001110011
Region Tag000000000000000000010000
rDBIIndex from getRDBIEntry: 000000000000000000010000
Re-generated address: 000000100001110011000000
blkIndexInBitset from getRDBIEntry: 000000000000000001110100
Region Tag000000000000000000010000
rDBIIndex from getRDBIEntry: 000000000000000000010000
Re-generated address: 000000100001110100000000
blkIndexInBitset from getRDBIEntry: 000000000000000001011010
Region Tag000000000000000000000101
rDBIIndex from getRDBIEntry: 000000000000000000000101
Re-generated address: 000000001011011010000000
blkIndexInBitset from getRDBIEntry: 000000000000000001110010
Region Tag000000000000000000010101
rDBIIndex from getRDBIEntry: 000000000000000000010101
Re-generated address: 000000101011110010000000
blkIndexInBitset from getRDBIEntry: 000000000000000001110011
Region Tag000000000000000000010101
rDBIIndex from getRDBIEntry: 000000000000000000010101
Re-generated address: 000000101011110011000000
blkIndexInBitset from getRDBIEntry: 000000000000000001110100
Region Tag000000000000000000010101
rDBIIndex from getRDBIEntry: 000000000000000000010101
Re-generated address: 000000101011110100000000
blkIndexInBitset from getRDBIEntry: 000000000000000001000001
Region Tag000000000000000000010101
rDBIIndex from getRDBIEntry: 000000000000000000010101
Re-generated address: 000000101011000001000000
blkIndexInBitset from getRDBIEntry: 000000000000000001011011
Region Tag000000000000000000000101
rDBIIndex from getRDBIEntry: 000000000000000000000101
Re-generated address: 000000001011011011000000
blkIndexInBitset from getRDBIEntry: 000000000000000001100001
Region Tag000000000000000000000101
rDBIIndex from getRDBIEntry: 000000000000000000000101
Re-generated address: 000000001011100001000000
blkIndexInBitset from getRDBIEntry: 000000000000000001100010
Region Tag000000000000000000000101
rDBIIndex from getRDBIEntry: 000000000000000000000101
Re-generated address: 000000001011100010000000
blkIndexInBitset from getRDBIEntry: 000000000000000001011100
Region Tag000000000000000000000101
rDBIIndex from getRDBIEntry: 000000000000000000000101
Re-generated address: 000000001011011100000000
blkIndexInBitset from getRDBIEntry: 000000000000000001100000
Region Tag000000000000000000000101
rDBIIndex from getRDBIEntry: 000000000000000000000101
Re-generated address: 000000001011100000000000
blkIndexInBitset from getRDBIEntry: 000000000000000000000010
Region Tag000000000000000000001010
rDBIIndex from getRDBIEntry: 000000000000000000001010
Re-generated address: 000000010100000010000000
blkIndexInBitset from getRDBIEntry: 000000000000000000000100
Region Tag000000000000000000001010
rDBIIndex from getRDBIEntry: 000000000000000000001010
Re-generated address: 000000010100000100000000
blkIndexInBitset from getRDBIEntry: 000000000000000000000011
Region Tag000000000000000000001010
rDBIIndex from getRDBIEntry: 000000000000000000001010
Re-generated address: 000000010100000011000000
blkIndexInBitset from getRDBIEntry: 000000000000000000100001
Region Tag000000000000000000000011
rDBIIndex from getRDBIEntry: 000000000000000000000011
Re-generated address: 000000000110100001000000
blkIndexInBitset from getRDBIEntry: 000000000000000000100010
Region Tag000000000000000000000011
rDBIIndex from getRDBIEntry: 000000000000000000000011
Re-generated address: 000000000110100010000000
blkIndexInBitset from getRDBIEntry: 000000000000000001000000
Region Tag000000000000000000000001
rDBIIndex from getRDBIEntry: 000000000000000000000001
Re-generated address: 000000000011000000000000
blkIndexInBitset from getRDBIEntry: 000000000000000000100011
Region Tag000000000000000000000011
rDBIIndex from getRDBIEntry: 000000000000000000000011
Re-generated address: 000000000110100011000000
blkIndexInBitset from getRDBIEntry: 000000000000000000110010
Region Tag000000000000000000010101
rDBIIndex from getRDBIEntry: 000000000000000000010101
Re-generated address: 000000101010110010000000
blkIndexInBitset from getRDBIEntry: 000000000000000001000110
Region Tag000000000000000000000001
rDBIIndex from getRDBIEntry: 000000000000000000000001
Re-generated address: 000000000011000110000000
blkIndexInBitset from getRDBIEntry: 000000000000000000100100
Region Tag000000000000000000000011
rDBIIndex from getRDBIEntry: 000000000000000000000011
Re-generated address: 000000000110100100000000
blkIndexInBitset from getRDBIEntry: 000000000000000000111000
Region Tag000000000000000000010101
rDBIIndex from getRDBIEntry: 000000000000000000010101
Re-generated address: 000000101010111000000000
blkIndexInBitset from getRDBIEntry: 000000000000000000100101
Region Tag000000000000000000000011
rDBIIndex from getRDBIEntry: 000000000000000000000011
Re-generated address: 000000000110100101000000
blkIndexInBitset from getRDBIEntry: 000000000000000000001010
Region Tag000000000000000000001011
rDBIIndex from getRDBIEntry: 000000000000000000001011
Re-generated address: 000000010110001010000000
blkIndexInBitset from getRDBIEntry: 000000000000000000100110
Region Tag000000000000000000000011
rDBIIndex from getRDBIEntry: 000000000000000000000011
Re-generated address: 000000000110100110000000
blkIndexInBitset from getRDBIEntry: 000000000000000000100111
Region Tag000000000000000000000011
rDBIIndex from getRDBIEntry: 000000000000000000000011
Re-generated address: 000000000110100111000000
blkIndexInBitset from getRDBIEntry: 000000000000000000101000
Region Tag000000000000000000000011
rDBIIndex from getRDBIEntry: 000000000000000000000011
Re-generated address: 000000000110101000000000
blkIndexInBitset from getRDBIEntry: 000000000000000000111111
Region Tag000000000000000000001000
rDBIIndex from getRDBIEntry: 000000000000000000001000
Re-generated address: 000000010000111111000000
blkIndexInBitset from getRDBIEntry: 000000000000000001000000
Region Tag000000000000000000001000
rDBIIndex from getRDBIEntry: 000000000000000000001000
Re-generated address: 000000010001000000000000
blkIndexInBitset from getRDBIEntry: 000000000000000001000001
Region Tag000000000000000000001000
rDBIIndex from getRDBIEntry: 000000000000000000001000
Re-generated address: 000000010001000001000000
blkIndexInBitset from getRDBIEntry: 000000000000000001111110
Region Tag000000000000000000001000
rDBIIndex from getRDBIEntry: 000000000000000000001000
Re-generated address: 000000010001111110000000
blkIndexInBitset from getRDBIEntry: 000000000000000001000010
Region Tag000000000000000000001000
rDBIIndex from getRDBIEntry: 000000000000000000001000
Re-generated address: 000000010001000010000000
blkIndexInBitset from getRDBIEntry: 000000000000000001000011
Region Tag000000000000000000001000
rDBIIndex from getRDBIEntry: 000000000000000000001000
Re-generated address: 000000010001000011000000
blkIndexInBitset from getRDBIEntry: 000000000000000001000100
Region Tag000000000000000000001000
rDBIIndex from getRDBIEntry: 000000000000000000001000
Re-generated address: 000000010001000100000000
blkIndexInBitset from getRDBIEntry: 000000000000000001000101
Region Tag000000000000000000001000
rDBIIndex from getRDBIEntry: 000000000000000000001000
Re-generated address: 000000010001000101000000
blkIndexInBitset from getRDBIEntry: 000000000000000001110010
Region Tag000000000000000000001000
rDBIIndex from getRDBIEntry: 000000000000000000001000
Re-generated address: 000000010001110010000000
blkIndexInBitset from getRDBIEntry: 000000000000000001110011
Region Tag000000000000000000001000
rDBIIndex from getRDBIEntry: 000000000000000000001000
Re-generated address: 000000010001110011000000
blkIndexInBitset from getRDBIEntry: 000000000000000000000111
Region Tag000000000000000000001001
rDBIIndex from getRDBIEntry: 000000000000000000001001
Re-generated address: 000000010010000111000000
blkIndexInBitset from getRDBIEntry: 000000000000000001000110
Region Tag000000000000000000001000
rDBIIndex from getRDBIEntry: 000000000000000000001000
Re-generated address: 000000010001000110000000
blkIndexInBitset from getRDBIEntry: 000000000000000001000111
Region Tag000000000000000000001000
rDBIIndex from getRDBIEntry: 000000000000000000001000
Re-generated address: 000000010001000111000000
blkIndexInBitset from getRDBIEntry: 000000000000000000100010
Region Tag000000000000000000001111
rDBIIndex from getRDBIEntry: 000000000000000000001111
Re-generated address: 000000011110100010000000
blkIndexInBitset from getRDBIEntry: 000000000000000000001111
Region Tag000000000000000000000000
rDBIIndex from getRDBIEntry: 000000000000000000000000
Re-generated address: 000000000000001111000000
blkIndexInBitset from getRDBIEntry: 000000000000000000100011
Region Tag000000000000000000001111
rDBIIndex from getRDBIEntry: 000000000000000000001111
Re-generated address: 000000011110100011000000
blkIndexInBitset from getRDBIEntry: 000000000000000001001000
Region Tag000000000000000000001000
rDBIIndex from getRDBIEntry: 000000000000000000001000
Re-generated address: 000000010001001000000000
blkIndexInBitset from getRDBIEntry: 000000000000000001010100
Region Tag000000000000000000001001
rDBIIndex from getRDBIEntry: 000000000000000000001001
Re-generated address: 000000010011010100000000
blkIndexInBitset from getRDBIEntry: 000000000000000001010101
Region Tag000000000000000000001001
rDBIIndex from getRDBIEntry: 000000000000000000001001
Re-generated address: 000000010011010101000000
blkIndexInBitset from getRDBIEntry: 000000000000000000100110
Region Tag000000000000000000010110
rDBIIndex from getRDBIEntry: 000000000000000000010110
Re-generated address: 000000101100100110000000
blkIndexInBitset from getRDBIEntry: 000000000000000000100111
Region Tag000000000000000000010110
rDBIIndex from getRDBIEntry: 000000000000000000010110
Re-generated address: 000000101100100111000000
blkIndexInBitset from getRDBIEntry: 000000000000000000100101
Region Tag000000000000000000010110
rDBIIndex from getRDBIEntry: 000000000000000000010110
Re-generated address: 000000101100100101000000
blkIndexInBitset from getRDBIEntry: 000000000000000001010110
Region Tag000000000000000000001001
rDBIIndex from getRDBIEntry: 000000000000000000001001
Re-generated address: 000000010011010110000000
blkIndexInBitset from getRDBIEntry: 000000000000000000010110
Region Tag000000000000000000001111
rDBIIndex from getRDBIEntry: 000000000000000000001111
Re-generated address: 000000011110010110000000
blkIndexInBitset from getRDBIEntry: 000000000000000000010111
Region Tag000000000000000000001111
rDBIIndex from getRDBIEntry: 000000000000000000001111
Re-generated address: 000000011110010111000000
blkIndexInBitset from getRDBIEntry: 000000000000000000101110
Region Tag000000000000000000001000
rDBIIndex from getRDBIEntry: 000000000000000000001000
Re-generated address: 000000010000101110000000
blkIndexInBitset from getRDBIEntry: 000000000000000000101111
Region Tag000000000000000000001000
rDBIIndex from getRDBIEntry: 000000000000000000001000
Re-generated address: 000000010000101111000000
blkIndexInBitset from getRDBIEntry: 000000000000000001101000
Region Tag000000000000000000000101
rDBIIndex from getRDBIEntry: 000000000000000000000101
Re-generated address: 000000001011101000000000
blkIndexInBitset from getRDBIEntry: 000000000000000000100100
Region Tag000000000000000000010110
rDBIIndex from getRDBIEntry: 000000000000000000010110
Re-generated address: 000000101100100100000000
blkIndexInBitset from getRDBIEntry: 000000000000000000010101
Region Tag000000000000000000010110
rDBIIndex from getRDBIEntry: 000000000000000000010110
Re-generated address: 000000101100010101000000
blkIndexInBitset from getRDBIEntry: 000000000000000000010110
Region Tag000000000000000000010110
rDBIIndex from getRDBIEntry: 000000000000000000010110
Re-generated address: 000000101100010110000000
blkIndexInBitset from getRDBIEntry: 000000000000000001101001
Region Tag000000000000000000000101
rDBIIndex from getRDBIEntry: 000000000000000000000101
Re-generated address: 000000001011101001000000
blkIndexInBitset from getRDBIEntry: 000000000000000001101010
Region Tag000000000000000000000101
rDBIIndex from getRDBIEntry: 000000000000000000000101
Re-generated address: 000000001011101010000000
blkIndexInBitset from getRDBIEntry: 000000000000000000100111
Region Tag000000000000000000001010
rDBIIndex from getRDBIEntry: 000000000000000000001010
Re-generated address: 000000010100100111000000
blkIndexInBitset from getRDBIEntry: 000000000000000000010100
Region Tag000000000000000000010001
rDBIIndex from getRDBIEntry: 000000000000000000010001
Re-generated address: 000000100010010100000000
blkIndexInBitset from getRDBIEntry: 000000000000000001110101
Region Tag000000000000000000001111
rDBIIndex from getRDBIEntry: 000000000000000000001111
Re-generated address: 000000011111110101000000
blkIndexInBitset from getRDBIEntry: 000000000000000001110110
Region Tag000000000000000000001111
rDBIIndex from getRDBIEntry: 000000000000000000001111
Re-generated address: 000000011111110110000000
blkIndexInBitset from getRDBIEntry: 000000000000000000101000
Region Tag000000000000000000001010
rDBIIndex from getRDBIEntry: 000000000000000000001010
Re-generated address: 000000010100101000000000
blkIndexInBitset from getRDBIEntry: 000000000000000001101011
Region Tag000000000000000000000101
rDBIIndex from getRDBIEntry: 000000000000000000000101
Re-generated address: 000000001011101011000000
blkIndexInBitset from getRDBIEntry: 000000000000000001101100
Region Tag000000000000000000000101
rDBIIndex from getRDBIEntry: 000000000000000000000101
Re-generated address: 000000001011101100000000
blkIndexInBitset from getRDBIEntry: 000000000000000001101101
Region Tag000000000000000000000101
rDBIIndex from getRDBIEntry: 000000000000000000000101
Re-generated address: 000000001011101101000000
blkIndexInBitset from getRDBIEntry: 000000000000000001101110
Region Tag000000000000000000000101
rDBIIndex from getRDBIEntry: 000000000000000000000101
Re-generated address: 000000001011101110000000
blkIndexInBitset from getRDBIEntry: 000000000000000000010111
Region Tag000000000000000000010110
rDBIIndex from getRDBIEntry: 000000000000000000010110
Re-generated address: 000000101100010111000000
blkIndexInBitset from getRDBIEntry: 000000000000000001110101
Region Tag000000000000000000000101
rDBIIndex from getRDBIEntry: 000000000000000000000101
Re-generated address: 000000001011110101000000
blkIndexInBitset from getRDBIEntry: 000000000000000001110110
Region Tag000000000000000000000101
rDBIIndex from getRDBIEntry: 000000000000000000000101
Re-generated address: 000000001011110110000000
blkIndexInBitset from getRDBIEntry: 000000000000000001111011
Region Tag000000000000000000000101
rDBIIndex from getRDBIEntry: 000000000000000000000101
Re-generated address: 000000001011111011000000
blkIndexInBitset from getRDBIEntry: 000000000000000001111100
Region Tag000000000000000000000101
rDBIIndex from getRDBIEntry: 000000000000000000000101
Re-generated address: 000000001011111100000000
blkIndexInBitset from getRDBIEntry: 000000000000000001111110
Region Tag000000000000000000000101
rDBIIndex from getRDBIEntry: 000000000000000000000101
Re-generated address: 000000001011111110000000
blkIndexInBitset from getRDBIEntry: 000000000000000001111101
Region Tag000000000000000000000101
rDBIIndex from getRDBIEntry: 000000000000000000000101
Re-generated address: 000000001011111101000000
blkIndexInBitset from getRDBIEntry: 000000000000000000001010
Region Tag000000000000000000000110
rDBIIndex from getRDBIEntry: 000000000000000000000110
Re-generated address: 000000001100001010000000
blkIndexInBitset from getRDBIEntry: 000000000000000000001011
Region Tag000000000000000000000110
rDBIIndex from getRDBIEntry: 000000000000000000000110
Re-generated address: 000000001100001011000000
blkIndexInBitset from getRDBIEntry: 000000000000000000010010
Region Tag000000000000000000000110
rDBIIndex from getRDBIEntry: 000000000000000000000110
Re-generated address: 000000001100010010000000
blkIndexInBitset from getRDBIEntry: 000000000000000001110111
Region Tag000000000000000000000101
rDBIIndex from getRDBIEntry: 000000000000000000000101
Re-generated address: 000000001011110111000000
blkIndexInBitset from getRDBIEntry: 000000000000000001111000
Region Tag000000000000000000000101
rDBIIndex from getRDBIEntry: 000000000000000000000101
Re-generated address: 000000001011111000000000
blkIndexInBitset from getRDBIEntry: 000000000000000000000101
Region Tag000000000000000000000110
rDBIIndex from getRDBIEntry: 000000000000000000000110
Re-generated address: 000000001100000101000000
blkIndexInBitset from getRDBIEntry: 000000000000000000000110
Region Tag000000000000000000000110
rDBIIndex from getRDBIEntry: 000000000000000000000110
Re-generated address: 000000001100000110000000
blkIndexInBitset from getRDBIEntry: 000000000000000001000011
Region Tag000000000000000000001101
rDBIIndex from getRDBIEntry: 000000000000000000001101
Re-generated address: 000000011011000011000000
blkIndexInBitset from getRDBIEntry: 000000000000000000010100
Region Tag000000000000000000010110
rDBIIndex from getRDBIEntry: 000000000000000000010110
Re-generated address: 000000101100010100000000
blkIndexInBitset from getRDBIEntry: 000000000000000001001100
Region Tag000000000000000000001101
rDBIIndex from getRDBIEntry: 000000000000000000001101
Re-generated address: 000000011011001100000000
blkIndexInBitset from getRDBIEntry: 000000000000000001001101
Region Tag000000000000000000001101
rDBIIndex from getRDBIEntry: 000000000000000000001101
Re-generated address: 000000011011001101000000
blkIndexInBitset from getRDBIEntry: 000000000000000000010011
Region Tag000000000000000000010110
rDBIIndex from getRDBIEntry: 000000000000000000010110
Re-generated address: 000000101100010011000000
blkIndexInBitset from getRDBIEntry: 000000000000000000011100
Region Tag000000000000000000001010
rDBIIndex from getRDBIEntry: 000000000000000000001010
Re-generated address: 000000010100011100000000
blkIndexInBitset from getRDBIEntry: 000000000000000000011101
Region Tag000000000000000000001010
rDBIIndex from getRDBIEntry: 000000000000000000001010
Re-generated address: 000000010100011101000000
blkIndexInBitset from getRDBIEntry: 000000000000000000010000
Region Tag000000000000000000010110
rDBIIndex from getRDBIEntry: 000000000000000000010110
Re-generated address: 000000101100010000000000
blkIndexInBitset from getRDBIEntry: 000000000000000000001011
Region Tag000000000000000000001111
rDBIIndex from getRDBIEntry: 000000000000000000001111
Re-generated address: 000000011110001011000000
blkIndexInBitset from getRDBIEntry: 000000000000000000001001
Region Tag000000000000000000001111
rDBIIndex from getRDBIEntry: 000000000000000000001111
Re-generated address: 000000011110001001000000
blkIndexInBitset from getRDBIEntry: 000000000000000000010001
Region Tag000000000000000000010110
rDBIIndex from getRDBIEntry: 000000000000000000010110
Re-generated address: 000000101100010001000000
blkIndexInBitset from getRDBIEntry: 000000000000000000011110
Region Tag000000000000000000001010
rDBIIndex from getRDBIEntry: 000000000000000000001010
Re-generated address: 000000010100011110000000
blkIndexInBitset from getRDBIEntry: 000000000000000000001111
Region Tag000000000000000000001111
rDBIIndex from getRDBIEntry: 000000000000000000001111
Re-generated address: 000000011110001111000000
[...]
blkIndexInBitset from getRDBIEntry: 000000000000000001000001
Region Tag000000000000000001011111
rDBIIndex from getRDBIEntry: 000000000000000000011111
Re-generated address: 000010111111000001000000
Packet address: 000010101111000001000000
blkIndexInBitset from getRDBIEntry: 000000000000000001000001
Region Tag000000000000000001010111
rDBIIndex from getRDBIEntry: 000000000000000000010111
Re-generated address: 000010101111000001000000
blkIndexInBitset from getRDBIEntry: 000000000000000001000010
Region Tag000000000000000001011111
rDBIIndex from getRDBIEntry: 000000000000000000011111
Re-generated address: 000010111111000010000000
Packet address: 000010110111000010000000
blkIndexInBitset from getRDBIEntry: 000000000000000001000010
Region Tag000000000000000001011011
rDBIIndex from getRDBIEntry: 000000000000000000011011
Re-generated address: 000010110111000010000000
blkIndexInBitset from getRDBIEntry: 000000000000000001000011
Region Tag000000000000000001011111
rDBIIndex from getRDBIEntry: 000000000000000000011111
Re-generated address: 000010111111000011000000
Packet address: 000000110111000011000000
blkIndexInBitset from getRDBIEntry: 000000000000000001000011
Region Tag000000000000000000011011
rDBIIndex from getRDBIEntry: 000000000000000000011011
Re-generated address: 000000110111000011000000
blkIndexInBitset from getRDBIEntry: 000000000000000001000100
Region Tag000000000000000001011111
rDBIIndex from getRDBIEntry: 000000000000000000011111
Re-generated address: 000010111111000100000000
Packet address: 000010110111000100000000
blkIndexInBitset from getRDBIEntry: 000000000000000001000100
Region Tag000000000000000001011011
rDBIIndex from getRDBIEntry: 000000000000000000011011
Re-generated address: 000010110111000100000000
blkIndexInBitset from getRDBIEntry: 000000000000000001000101
Region Tag000000000000000001011111
rDBIIndex from getRDBIEntry: 000000000000000000011111
Re-generated address: 000010111111000101000000
Packet address: 000010010111000101000000
blkIndexInBitset from getRDBIEntry: 000000000000000001000101
Region Tag000000000000000001001011
rDBIIndex from getRDBIEntry: 000000000000000000001011
Re-generated address: 000010010111000101000000
blkIndexInBitset from getRDBIEntry: 000000000000000001000110
Region Tag000000000000000001011111
rDBIIndex from getRDBIEntry: 000000000000000000011111
Re-generated address: 000010111111000110000000
Packet address: 000010001111000110000000
blkIndexInBitset from getRDBIEntry: 000000000000000001000110
Region Tag000000000000000001000111
rDBIIndex from getRDBIEntry: 000000000000000000000111
Re-generated address: 000010001111000110000000
blkIndexInBitset from getRDBIEntry: 000000000000000001000111
Region Tag000000000000000001011111
rDBIIndex from getRDBIEntry: 000000000000000000011111
Re-generated address: 000010111111000111000000
blkIndexInBitset from getRDBIEntry: 000000000000000001001000
Region Tag000000000000000001011111
rDBIIndex from getRDBIEntry: 000000000000000000011111
Re-generated address: 000010111111001000000000
Packet address: 000010011111001000000000
blkIndexInBitset from getRDBIEntry: 000000000000000001001000
Region Tag000000000000000001001111
rDBIIndex from getRDBIEntry: 000000000000000000001111
Re-generated address: 000010011111001000000000
Packet address: 000000101011001000000000
blkIndexInBitset from getRDBIEntry: 000000000000000001001000
Region Tag000000000000000000010101
rDBIIndex from getRDBIEntry: 000000000000000000010101
Re-generated address: 000000101011001000000000
blkIndexInBitset from getRDBIEntry: 000000000000000001001001
Region Tag000000000000000001011111
rDBIIndex from getRDBIEntry: 000000000000000000011111
Re-generated address: 000010111111001001000000
blkIndexInBitset from getRDBIEntry: 000000000000000001001010
Region Tag000000000000000001011111
rDBIIndex from getRDBIEntry: 000000000000000000011111
Re-generated address: 000010111111001010000000
Packet address: 000010100111001010000000
blkIndexInBitset from getRDBIEntry: 000000000000000001001010
Region Tag000000000000000001010011
rDBIIndex from getRDBIEntry: 000000000000000000010011
Re-generated address: 000010100111001010000000
blkIndexInBitset from getRDBIEntry: 000000000000000001001011
Region Tag000000000000000001011111
rDBIIndex from getRDBIEntry: 000000000000000000011111
Re-generated address: 000010111111001011000000
Packet address: 000010010111001011000000
blkIndexInBitset from getRDBIEntry: 000000000000000001001011
Region Tag000000000000000001001011
rDBIIndex from getRDBIEntry: 000000000000000000001011
Re-generated address: 000010010111001011000000
blkIndexInBitset from getRDBIEntry: 000000000000000001001100
Region Tag000000000000000001011111
rDBIIndex from getRDBIEntry: 000000000000000000011111
Re-generated address: 000010111111001100000000
Packet address: 000010010111001100000000
blkIndexInBitset from getRDBIEntry: 000000000000000001001100
Region Tag000000000000000001001011
rDBIIndex from getRDBIEntry: 000000000000000000001011
Re-generated address: 000010010111001100000000
blkIndexInBitset from getRDBIEntry: 000000000000000001001101
Region Tag000000000000000001011111
rDBIIndex from getRDBIEntry: 000000000000000000011111
Re-generated address: 000010111111001101000000
blkIndexInBitset from getRDBIEntry: 000000000000000001001110
Region Tag000000000000000001011111
rDBIIndex from getRDBIEntry: 000000000000000000011111
Re-generated address: 000010111111001110000000
Packet address: 000010100111001110000000
blkIndexInBitset from getRDBIEntry: 000000000000000001001110
Region Tag000000000000000001010011
rDBIIndex from getRDBIEntry: 000000000000000000010011
Re-generated address: 000010100111001110000000
blkIndexInBitset from getRDBIEntry: 000000000000000001001111
Region Tag000000000000000001011111
rDBIIndex from getRDBIEntry: 000000000000000000011111
Re-generated address: 000010111111001111000000
blkIndexInBitset from getRDBIEntry: 000000000000000001010000
Region Tag000000000000000001011111
rDBIIndex from getRDBIEntry: 000000000000000000011111
Re-generated address: 000010111111010000000000
Packet address: 000010010111010000000000
blkIndexInBitset from getRDBIEntry: 000000000000000001010000
Region Tag000000000000000001001011
rDBIIndex from getRDBIEntry: 000000000000000000001011
Re-generated address: 000010010111010000000000
blkIndexInBitset from getRDBIEntry: 000000000000000001010001
Region Tag000000000000000001011111
rDBIIndex from getRDBIEntry: 000000000000000000011111
Re-generated address: 000010111111010001000000
Packet address: 000010110111010001000000
blkIndexInBitset from getRDBIEntry: 000000000000000001010001
Region Tag000000000000000001011011
rDBIIndex from getRDBIEntry: 000000000000000000011011
Re-generated address: 000010110111010001000000
blkIndexInBitset from getRDBIEntry: 000000000000000001010010
Region Tag000000000000000001011111
rDBIIndex from getRDBIEntry: 000000000000000000011111
Re-generated address: 000010111111010010000000
blkIndexInBitset from getRDBIEntry: 000000000000000001010011
Region Tag000000000000000001011111
rDBIIndex from getRDBIEntry: 000000000000000000011111
Re-generated address: 000010111111010011000000
Packet address: 000010011111010011000000
blkIndexInBitset from getRDBIEntry: 000000000000000001010011
Region Tag000000000000000001001111
rDBIIndex from getRDBIEntry: 000000000000000000001111
Re-generated address: 000010011111010011000000
blkIndexInBitset from getRDBIEntry: 000000000000000001010100
Region Tag000000000000000001011111
rDBIIndex from getRDBIEntry: 000000000000000000011111
Re-generated address: 000010111111010100000000
blkIndexInBitset from getRDBIEntry: 000000000000000001010101
Region Tag000000000000000001011111
rDBIIndex from getRDBIEntry: 000000000000000000011111
Re-generated address: 000010111111010101000000
blkIndexInBitset from getRDBIEntry: 000000000000000001010110
Region Tag000000000000000001011111
rDBIIndex from getRDBIEntry: 000000000000000000011111
Re-generated address: 000010111111010110000000
Packet address: 000010110111010110000000
blkIndexInBitset from getRDBIEntry: 000000000000000001010110
Region Tag000000000000000001011011
rDBIIndex from getRDBIEntry: 000000000000000000011011
Re-generated address: 000010110111010110000000
blkIndexInBitset from getRDBIEntry: 000000000000000001010111
Region Tag000000000000000001011111
rDBIIndex from getRDBIEntry: 000000000000000000011111
Re-generated address: 000010111111010111000000
Packet address: 000010100111010111000000
blkIndexInBitset from getRDBIEntry: 000000000000000001010111
Region Tag000000000000000001010011
rDBIIndex from getRDBIEntry: 000000000000000000010011
Re-generated address: 000010100111010111000000
blkIndexInBitset from getRDBIEntry: 000000000000000001011000
Region Tag000000000000000001011111
rDBIIndex from getRDBIEntry: 000000000000000000011111
Re-generated address: 000010111111011000000000
blkIndexInBitset from getRDBIEntry: 000000000000000001011001
Region Tag000000000000000001011111
rDBIIndex from getRDBIEntry: 000000000000000000011111
Re-generated address: 000010111111011001000000
Packet address: 000010011111011001000000
blkIndexInBitset from getRDBIEntry: 000000000000000001011001
Region Tag000000000000000001001111
rDBIIndex from getRDBIEntry: 000000000000000000001111
Re-generated address: 000010011111011001000000
blkIndexInBitset from getRDBIEntry: 000000000000000001011010
Region Tag000000000000000001011111
rDBIIndex from getRDBIEntry: 000000000000000000011111
Re-generated address: 000010111111011010000000
blkIndexInBitset from getRDBIEntry: 000000000000000001011011
Region Tag000000000000000001011111
rDBIIndex from getRDBIEntry: 000000000000000000011111
Re-generated address: 000010111111011011000000
Packet address: 000010010111011011000000
blkIndexInBitset from getRDBIEntry: 000000000000000001011011
Region Tag000000000000000001001011
rDBIIndex from getRDBIEntry: 000000000000000000001011
Re-generated address: 000010010111011011000000
blkIndexInBitset from getRDBIEntry: 000000000000000001011100
Region Tag000000000000000001011111
rDBIIndex from getRDBIEntry: 000000000000000000011111
Re-generated address: 000010111111011100000000
Packet address: 000010001111011100000000
blkIndexInBitset from getRDBIEntry: 000000000000000001011100
Region Tag000000000000000001000111
rDBIIndex from getRDBIEntry: 000000000000000000000111
Re-generated address: 000010001111011100000000
blkIndexInBitset from getRDBIEntry: 000000000000000001011101
Region Tag000000000000000001011111
rDBIIndex from getRDBIEntry: 000000000000000000011111
Re-generated address: 000010111111011101000000
Packet address: 000010010111011101000000
blkIndexInBitset from getRDBIEntry: 000000000000000001011101
Region Tag000000000000000001001011
rDBIIndex from getRDBIEntry: 000000000000000000001011
Re-generated address: 000010010111011101000000
blkIndexInBitset from getRDBIEntry: 000000000000000001011110
Region Tag000000000000000001011111
rDBIIndex from getRDBIEntry: 000000000000000000011111
Re-generated address: 000010111111011110000000
blkIndexInBitset from getRDBIEntry: 000000000000000001011111
Region Tag000000000000000001011111
rDBIIndex from getRDBIEntry: 000000000000000000011111
Re-generated address: 000010111111011111000000
Packet address: 000010100111011111000000
blkIndexInBitset from getRDBIEntry: 000000000000000001011111
Region Tag000000000000000001010011
rDBIIndex from getRDBIEntry: 000000000000000000010011
Re-generated address: 000010100111011111000000
blkIndexInBitset from getRDBIEntry: 000000000000000001100000
Region Tag000000000000000001011111
rDBIIndex from getRDBIEntry: 000000000000000000011111
Re-generated address: 000010111111100000000000
blkIndexInBitset from getRDBIEntry: 000000000000000001100001
Region Tag000000000000000001011111
rDBIIndex from getRDBIEntry: 000000000000000000011111
Re-generated address: 000010111111100001000000
Packet address: 000010101111100001000000
blkIndexInBitset from getRDBIEntry: 000000000000000001100001
Region Tag000000000000000001010111
rDBIIndex from getRDBIEntry: 000000000000000000010111
Re-generated address: 000010101111100001000000
blkIndexInBitset from getRDBIEntry: 000000000000000001100010
Region Tag000000000000000001011111
rDBIIndex from getRDBIEntry: 000000000000000000011111
Re-generated address: 000010111111100010000000
blkIndexInBitset from getRDBIEntry: 000000000000000001100011
Region Tag000000000000000001011111
rDBIIndex from getRDBIEntry: 000000000000000000011111
Re-generated address: 000010111111100011000000
blkIndexInBitset from getRDBIEntry: 000000000000000001100100
Region Tag000000000000000001011111
rDBIIndex from getRDBIEntry: 000000000000000000011111
Re-generated address: 000010111111100100000000
blkIndexInBitset from getRDBIEntry: 000000000000000001100101
Region Tag000000000000000001011111
rDBIIndex from getRDBIEntry: 000000000000000000011111
Re-generated address: 000010111111100101000000
Packet address: 000010011111100101000000
blkIndexInBitset from getRDBIEntry: 000000000000000001100101
Region Tag000000000000000001001111
rDBIIndex from getRDBIEntry: 000000000000000000001111
Re-generated address: 000010011111100101000000
blkIndexInBitset from getRDBIEntry: 000000000000000001100110
Region Tag000000000000000001011111
rDBIIndex from getRDBIEntry: 000000000000000000011111
Re-generated address: 000010111111100110000000
blkIndexInBitset from getRDBIEntry: 000000000000000001100111
Region Tag000000000000000001011111
rDBIIndex from getRDBIEntry: 000000000000000000011111
Re-generated address: 000010111111100111000000
Packet address: 000010101111100111000000
blkIndexInBitset from getRDBIEntry: 000000000000000001100111
Region Tag000000000000000001010111
rDBIIndex from getRDBIEntry: 000000000000000000010111
Re-generated address: 000010101111100111000000
blkIndexInBitset from getRDBIEntry: 000000000000000001101000
Region Tag000000000000000001011111
rDBIIndex from getRDBIEntry: 000000000000000000011111
Re-generated address: 000010111111101000000000
Packet address: 000000111111101000000000
blkIndexInBitset from getRDBIEntry: 000000000000000001101000
Region Tag000000000000000000011111
rDBIIndex from getRDBIEntry: 000000000000000000011111
Re-generated address: 000000111111101000000000
blkIndexInBitset from getRDBIEntry: 000000000000000001101001
Region Tag000000000000000001011111
rDBIIndex from getRDBIEntry: 000000000000000000011111
Re-generated address: 000010111111101001000000
Packet address: 000000110111101001000000
blkIndexInBitset from getRDBIEntry: 000000000000000001101001
Region Tag000000000000000000011011
rDBIIndex from getRDBIEntry: 000000000000000000011011
Re-generated address: 000000110111101001000000
blkIndexInBitset from getRDBIEntry: 000000000000000001101010
Region Tag000000000000000001011111
rDBIIndex from getRDBIEntry: 000000000000000000011111
Re-generated address: 000010111111101010000000
blkIndexInBitset from getRDBIEntry: 000000000000000001101011
Region Tag000000000000000001011111
rDBIIndex from getRDBIEntry: 000000000000000000011111
Re-generated address: 000010111111101011000000
blkIndexInBitset from getRDBIEntry: 000000000000000001101100
Region Tag000000000000000001011111
rDBIIndex from getRDBIEntry: 000000000000000000011111
Re-generated address: 000010111111101100000000
Packet address: 000000111111101100000000
blkIndexInBitset from getRDBIEntry: 000000000000000001101100
Region Tag000000000000000000011111
rDBIIndex from getRDBIEntry: 000000000000000000011111
Re-generated address: 000000111111101100000000
blkIndexInBitset from getRDBIEntry: 000000000000000001101101
Region Tag000000000000000001011111
rDBIIndex from getRDBIEntry: 000000000000000000011111
Re-generated address: 000010111111101101000000
Packet address: 000010011111101101000000
blkIndexInBitset from getRDBIEntry: 000000000000000001101101
Region Tag000000000000000001001111
rDBIIndex from getRDBIEntry: 000000000000000000001111
Re-generated address: 000010011111101101000000
blkIndexInBitset from getRDBIEntry: 000000000000000001101110
Region Tag000000000000000001011111
rDBIIndex from getRDBIEntry: 000000000000000000011111
Re-generated address: 000010111111101110000000
blkIndexInBitset from getRDBIEntry: 000000000000000001101111
Region Tag000000000000000001011111
rDBIIndex from getRDBIEntry: 000000000000000000011111
Re-generated address: 000010111111101111000000
blkIndexInBitset from getRDBIEntry: 000000000000000001110000
Region Tag000000000000000001011111
rDBIIndex from getRDBIEntry: 000000000000000000011111
Re-generated address: 000010111111110000000000
blkIndexInBitset from getRDBIEntry: 000000000000000001110001
Region Tag000000000000000001011111
rDBIIndex from getRDBIEntry: 000000000000000000011111
Re-generated address: 000010111111110001000000
Packet address: 000000110111110001000000
blkIndexInBitset from getRDBIEntry: 000000000000000001110001
Region Tag000000000000000000011011
rDBIIndex from getRDBIEntry: 000000000000000000011011
Re-generated address: 000000110111110001000000
blkIndexInBitset from getRDBIEntry: 000000000000000001110010
Region Tag000000000000000001011111
rDBIIndex from getRDBIEntry: 000000000000000000011111
Re-generated address: 000010111111110010000000
blkIndexInBitset from getRDBIEntry: 000000000000000001110011
Region Tag000000000000000001011111
rDBIIndex from getRDBIEntry: 000000000000000000011111
Re-generated address: 000010111111110011000000
blkIndexInBitset from getRDBIEntry: 000000000000000001110100
Region Tag000000000000000001011111
rDBIIndex from getRDBIEntry: 000000000000000000011111
Re-generated address: 000010111111110100000000
blkIndexInBitset from getRDBIEntry: 000000000000000001110101
Region Tag000000000000000001011111
rDBIIndex from getRDBIEntry: 000000000000000000011111
Re-generated address: 000010111111110101000000
Packet address: 000010100111110101000000
blkIndexInBitset from getRDBIEntry: 000000000000000001110101
Region Tag000000000000000001010011
rDBIIndex from getRDBIEntry: 000000000000000000010011
Re-generated address: 000010100111110101000000
blkIndexInBitset from getRDBIEntry: 000000000000000000000000
Region Tag000000000000000000000001
rDBIIndex from getRDBIEntry: 000000000000000000000001
Re-generated address: 000000000010000000000000
Clearing the dirty bit
blkIndexInBitset from getRDBIEntry: 000000000000000000000000
Region Tag000000000000000000000001
rDBIIndex from getRDBIEntry: 000000000000000000000001
Re-generated address: 000000000010000000000000
In writebackRDBIEntry
blkIndexInBitset from getRDBIEntry: 000000000000000000101011
Region Tag000000000000000000010110
rDBIIndex from getRDBIEntry: 000000000000000000010110
Re-generated address: 000000101100101011000000
Clearing the dirty bit
blkIndexInBitset from getRDBIEntry: 000000000000000000101011
Region Tag000000000000000000010110
rDBIIndex from getRDBIEntry: 000000000000000000010110
Re-generated address: 000000101100101011000000
In writebackRDBIEntry
blkIndexInBitset from getRDBIEntry: 000000000000000000101101
Region Tag000000000000000000010110
rDBIIndex from getRDBIEntry: 000000000000000000010110
Re-generated address: 000000101100101101000000
blkIndexInBitset from getRDBIEntry: 000000000000000000110000
Region Tag000000000000000000010110
rDBIIndex from getRDBIEntry: 000000000000000000010110
Re-generated address: 000000101100110000000000
Packet address: 000010010100110000000000
blkIndexInBitset from getRDBIEntry: 000000000000000000110000
Region Tag000000000000000001001010
rDBIIndex from getRDBIEntry: 000000000000000000001010
Re-generated address: 000010010100110000000000
blkIndexInBitset from getRDBIEntry: 000000000000000000101001
Region Tag000000000000000000010110
rDBIIndex from getRDBIEntry: 000000000000000000010110
Re-generated address: 000000101100101001000000
blkIndexInBitset from getRDBIEntry: 000000000000000001000111
Region Tag000000000000000000010101
rDBIIndex from getRDBIEntry: 000000000000000000010101
Re-generated address: 000000101011000111000000
Clearing the dirty bit
blkIndexInBitset from getRDBIEntry: 000000000000000001000111
Region Tag000000000000000000010101
rDBIIndex from getRDBIEntry: 000000000000000000010101
Re-generated address: 000000101011000111000000
In writebackRDBIEntry
