Global frequency set at 1000000000000 ticks per second
Hey, I am a DBICache component
Hey, I am a RDBI component
gem5 Simulator System.  https://www.gem5.org
gem5 is copyrighted software; use the --copyright option for details.

gem5 version 22.0.0.2
gem5 compiled Jan 25 2023 14:34:05
gem5 started Jan 26 2023 10:14:54
gem5 executing on v100-gpu-1, pid 18222
command line: build/X86/gem5.opt configs/learning_gem5/test_dbi/three_level.py

Beginning simulation!
Exiting @ tick 404216000 because exiting with last active thread context
