Global frequency set at 1000000000000 ticks per second
gem5 Simulator System.  https://www.gem5.org
gem5 is copyrighted software; use the --copyright option for details.

gem5 version 22.0.0.2
gem5 compiled Dec 23 2022 06:24:38
gem5 started Dec 23 2022 06:27:26
gem5 executing on v100-gpu-4, pid 5570
command line: build/X86/gem5.opt configs/learning_gem5/Toy/two_level.py configs/learning_gem5/Toy/add -n 1000 -t 3

Beginning simulation!
181184
176576
174656
174912
174848
175360
175616
222976
217536
183104
228608
217792
183168
218048
218112
218496
182976
182912
182784
174464
182848
217920
182720
182656
182592
177152
182464
182528
218368
176512
177216
171136
176576
7872
217088
217856
217152
228352
182400
182336
255936
218176
171200
219072
176448
177856
179456
218240
174592
175296
174656
171712
171648
175360
175232
219264
174528
171648
177856
177280
218432
177408
174464
174464
174656
229312
171712
219264
222464
183232
249856
171328
171264
171392
171456
178816
178624
178560
177920
178688
183296
176064
175936
176000
177408
218304
177344
171520
176704
176832
176896
171648
177600
183360
243456
255936
174784
175168
171776
174912
171904
174720
174976
219200
219136
171968
172032
175616
176256
183488
183552
183616
183680
171072
183744
172096
176768
217216
228288
183424
177920
243456
228864
222144
222208
256448
217344
177856
251328
224320
8128
244224
244160
8256
182272
182208
182848
222336
281536
252672
174400
217280
228480
228608
217984
171648
177280
178752
217728
183232
183296
183360
175936
174400
228736
243392
228800
429824
250176
183424
252672
183168
222080
183104
228928
171136
183040
182976
229056
228992
249984
183488
8256
8192
182848
182912
176576
176704
7872
176448
182784
176896
177216
218432
243456
177344
182720
182592
174464
182656
182528
182464
182400
177152
182272
182336
218368
176512
182208
177856
217792
217152
228352
182144
218496
218048
171200
251392
251456
509056
525440
183424
8192
182848
182912
182976
183040
183104
183168
183232
183296
176576
176704
7872
176448
182784
176896
177216
218432
243456
177344
182720
182592
174464
182656
182528
182464
182400
177152
182272
182336
218368
176512
171136
182208
177856
217088
217856
217792
217152
228352
182144
218496
218048
171200
183360
418496
183552
507904
514560
517120
507968
514624
517184
508032
514688
517248
508096
514752
517312
508160
514816
517376
508224
514880
517440
508288
514944
517504
508352
515008
517568
508416
515072
517632
508480
515136
517696
508544
515200
517760
508608
515264
517824
508672
515328
517888
508736
515392
517952
508800
515456
518016
508864
515520
518080
508928
515584
518144
508992
515648
518208
509056
515712
518272
509120
515776
518336
509184
515840
518400
509248
515904
518464
509312
515968
518528
509376
516032
518592
509440
524288
518656
509504
524352
518720
509568
524416
518784
509632
524480
518848
509696
524544
518912
509760
524608
518976
509824
524672
519040
509888
524736
519104
509952
524800
519168
510016
524864
519232
510080
524928
519296
510144
524992
519360
510208
525056
519424
510272
525120
519488
510336
525184
519552
510400
525248
519616
510464
525312
519680
510528
525376
519744
510592
525440
519808
510656
525504
519872
510720
525568
519936
510784
525632
520000
510848
525696
520064
510912
525760
520128
510976
525824
528384
511040
525888
528448
511104
525952
528512
511168
526016
528576
511232
526080
528640
511296
526144
528704
511360
526208
528768
511424
526272
528832
511488
526336
528896
511552
526400
528960
511616
526464
529024
511680
526528
529088
511744
526592
529152
511808
526656
529216
511872
526720
529280
529344
529408
529472
529536
529600
529664
529728
529792
529856
529920
529984
530048
530112
530176
530240
530304
530368
530432
530496
530560
530624
530688
530752
530816
530880
530944
531008
531072
531136
531200
531264
531328
531392
531456
531520
531584
531648
531712
531776
531840
531904
531968
532032
532096
532160
532224
532288
532352
532416
540672
540736
540800
540864
540928
540992
541056
541120
541184
541248
541312
541376
541440
541504
541568
541632
541696
541760
541824
541888
541952
542016
542080
542144
542208
542272
542336
542400
542464
542528
542592
542656
542720
542784
542848
542912
542976
543040
543104
543168
543232
543296
543360
543424
543488
543552
543616
543680
543744
543808
543872
543936
544000
544064
544128
544192
544256
544320
544384
544448
544512
544576
544640
544704
552960
553024
553088
553152
553216
553280
553344
553408
553472
553536
553600
553664
553728
553792
553856
553920
553984
554048
554112
554176
554240
554304
554368
554432
554496
554560
554624
554688
554752
554816
554880
554944
555008
555072
555136
555200
555264
555328
555392
555456
555520
555584
555648
555712
555776
555840
555904
555968
556032
556096
556160
556224
556288
556352
556416
556480
556544
556608
556672
556736
556800
556864
556928
556992
565248
565312
565376
565440
565504
565568
565632
565696
565760
565824
565888
565952
566016
566080
566144
566208
566272
566336
566400
566464
566528
566592
566656
566720
566784
566848
566912
566976
567040
567104
567168
567232
567296
567360
567424
567488
567552
567616
567680
567744
567808
567872
567936
568000
568064
568128
568192
568256
568320
568384
568448
568512
568576
568640
568704
568768
568832
568896
568960
569024
569088
569152
569216
569280
577536
577600
577664
577728
577792
577856
577920
577984
578048
578112
578176
578240
578304
578368
578432
578496
578560
578624
578688
578752
578816
578880
578944
579008
579072
579136
579200
579264
579328
579392
579456
579520
579584
579648
579712
579776
579840
579904
579968
580032
580096
580160
580224
580288
580352
580416
580480
580544
580608
580672
580736
580800
580864
580928
580992
581056
581120
581184
581248
581312
581376
581440
581504
581568
589824
589888
589952
590016
590080
590144
590208
590272
590336
590400
590464
590528
590592
590656
590720
590784
590848
590912
590976
591040
591104
591168
591232
591296
591360
591424
591488
591552
591616
591680
591744
591808
591872
591936
592000
592064
592128
592192
592256
592320
592384
592448
592512
592576
592640
592704
592768
592832
592896
592960
593024
593088
593152
593216
593280
593344
593408
593472
593536
593600
593664
593728
593792
593856
602112
602176
602240
602304
602368
602432
602496
602560
602624
602688
602752
602816
602880
602944
603008
603072
603136
603200
603264
603328
603392
603456
603520
603584
603648
603712
603776
603840
603904
603968
604032
604096
604160
604224
604288
604352
604416
604480
604544
604608
604672
604736
604800
604864
604928
604992
605056
605120
605184
605248
605312
605376
605440
605504
605568
605632
605696
605760
605824
605888
605952
606016
606080
606144
614400
614464
614528
614592
614656
614720
614784
614848
614912
614976
615040
615104
615168
615232
615296
615360
615424
615488
615552
615616
615680
615744
615808
615872
615936
616000
616064
616128
616192
616256
616320
616384
616448
616512
616576
616640
616704
616768
616832
616896
616960
617024
617088
617152
617216
617280
617344
617408
617472
617536
617600
617664
617728
617792
617856
617920
617984
618048
618112
618176
618240
618304
618368
618432
626688
626752
626816
626880
626944
627008
627072
627136
627200
627264
627328
627392
627456
627520
627584
627648
627712
627776
627840
627904
627968
628032
628096
628160
628224
628288
628352
628416
628480
628544
628608
628672
628736
628800
628864
628928
628992
629056
629120
629184
629248
629312
629376
629440
629504
629568
629632
629696
629760
629824
629888
629952
630016
630080
630144
630208
630272
630336
630400
630464
630528
630592
630656
630720
638976
639040
639104
639168
639232
639296
639360
639424
639488
639552
639616
639680
639744
639808
639872
639936
640000
640064
640128
640192
640256
640320
640384
640448
640512
640576
640640
640704
640768
640832
640896
640960
641024
641088
641152
641216
641280
641344
641408
641472
641536
641600
641664
641728
641792
641856
641920
641984
642048
642112
642176
642240
642304
642368
642432
642496
642560
642624
642688
642752
642816
642880
642944
643008
651264
651328
651392
651456
651520
651584
651648
651712
651776
651840
651904
651968
652032
652096
652160
652224
652288
652352
652416
652480
652544
652608
652672
652736
652800
652864
652928
652992
653056
653120
653184
653248
653312
653376
653440
653504
653568
653632
653696
653760
653824
653888
653952
654016
654080
654144
654208
654272
654336
654400
654464
654528
654592
654656
654720
654784
654848
654912
654976
655040
655104
655168
655232
655296
663552
663616
663680
663744
663808
663872
663936
664000
664064
664128
664192
664256
664320
664384
664448
664512
664576
664640
664704
664768
664832
664896
664960
665024
665088
665152
665216
665280
665344
665408
665472
665536
665600
665664
665728
665792
665856
665920
665984
666048
666112
666176
666240
666304
666368
666432
666496
666560
666624
666688
666752
666816
666880
666944
667008
667072
667136
667200
667264
667328
667392
667456
667520
667584
675840
675904
675968
676032
676096
676160
676224
676288
676352
676416
676480
676544
676608
676672
676736
676800
676864
676928
676992
677056
677120
677184
677248
677312
677376
677440
677504
677568
677632
677696
677760
677824
677888
677952
678016
678080
678144
678208
678272
678336
678400
678464
678528
678592
678656
678720
678784
678848
678912
678976
679040
679104
679168
679232
679296
679360
679424
679488
679552
679616
679680
679744
679808
679872
688128
688192
688256
688320
688384
688448
688512
688576
688640
688704
688768
688832
688896
688960
689024
689088
689152
689216
689280
689344
689408
689472
689536
689600
689664
689728
689792
689856
689920
689984
690048
690112
690176
690240
690304
690368
690432
690496
690560
690624
690688
690752
690816
690880
690944
691008
691072
691136
691200
691264
691328
691392
691456
691520
691584
691648
691712
691776
691840
691904
691968
692032
692096
692160
520192
520256
520320
520384
520448
520512
520576
520640
520704
520768
520832
520896
520960
521024
521088
521152
521216
521280
521344
521408
521472
521536
521600
521664
521728
521792
521856
521920
521984
522048
522112
522176
522240
522304
522368
522432
522496
522560
522624
522688
522752
522816
522880
522944
523008
523072
523136
523200
523264
523328
523392
523456
523520
523584
523648
523712
507904
514560
517120
507968
514624
517184
508032
514688
517248
508096
514752
517312
508160
514816
517376
508224
514880
517440
508288
514944
517504
508352
515008
517568
508416
515072
517632
508480
515136
517696
508544
515200
517760
508608
515264
517824
508672
515328
517888
508736
515392
517952
508800
515456
518016
508864
515520
518080
508928
515584
518144
508992
515648
518208
509056
515712
518272
509120
515776
518336
509184
515840
518400
509248
515904
518464
509312
515968
518528
509376
516032
518592
509440
524288
518656
509504
524352
518720
509568
524416
518784
509632
524480
518848
509696
524544
518912
509760
524608
518976
509824
524672
519040
509888
524736
519104
509952
524800
519168
510016
524864
519232
510080
524928
519296
510144
524992
519360
510208
525056
519424
510272
525120
519488
510336
525184
519552
510400
525248
519616
510464
525312
519680
510528
525376
519744
510592
525440
519808
510656
525504
519872
510720
525568
519936
510784
525632
520000
510848
525696
520064
510912
525760
520128
510976
525824
528384
511040
525888
528448
511104
525952
528512
511168
526016
528576
511232
526080
528640
511296
526144
528704
511360
526208
528768
511424
526272
528832
511488
526336
528896
511552
526400
528960
511616
526464
529024
511680
526528
529088
511744
526592
529152
511808
526656
529216
511872
526720
529280
529344
529408
529472
529536
529600
529664
529728
529792
529856
529920
529984
530048
530112
530176
530240
530304
530368
530432
530496
530560
530624
530688
530752
530816
530880
530944
531008
531072
531136
531200
531264
531328
531392
531456
531520
531584
531648
531712
531776
531840
531904
531968
532032
532096
532160
532224
532288
532352
532416
540672
540736
540800
540864
540928
540992
541056
541120
541184
541248
541312
541376
541440
541504
541568
541632
541696
541760
541824
541888
541952
542016
542080
542144
542208
542272
542336
542400
542464
542528
542592
542656
542720
542784
542848
542912
542976
543040
543104
543168
543232
543296
543360
543424
543488
543552
543616
543680
543744
543808
543872
543936
544000
544064
544128
544192
544256
544320
544384
544448
544512
544576
544640
544704
552960
553024
553088
553152
553216
553280
553344
553408
553472
553536
553600
553664
553728
553792
553856
553920
553984
554048
554112
554176
554240
554304
554368
554432
554496
554560
554624
554688
554752
554816
554880
554944
555008
555072
555136
555200
555264
555328
555392
555456
555520
555584
555648
555712
555776
555840
555904
555968
556032
556096
556160
556224
556288
556352
556416
556480
556544
556608
556672
556736
556800
556864
556928
556992
565248
565312
565376
565440
565504
565568
565632
565696
565760
565824
565888
565952
566016
566080
566144
566208
566272
566336
566400
566464
566528
566592
566656
566720
566784
566848
566912
566976
567040
567104
567168
567232
567296
567360
567424
567488
567552
567616
567680
567744
567808
567872
567936
568000
568064
568128
568192
568256
568320
568384
568448
568512
568576
568640
568704
568768
568832
568896
568960
569024
569088
569152
569216
569280
577536
577600
577664
577728
577792
577856
577920
577984
578048
578112
578176
578240
578304
578368
578432
578496
578560
578624
578688
578752
578816
578880
578944
579008
579072
579136
579200
579264
579328
579392
579456
579520
579584
579648
579712
579776
579840
579904
579968
580032
580096
580160
580224
580288
580352
580416
580480
580544
580608
580672
580736
580800
580864
580928
580992
581056
581120
581184
581248
581312
581376
581440
581504
581568
589824
589888
589952
590016
590080
590144
590208
590272
590336
590400
590464
590528
590592
590656
590720
590784
590848
590912
590976
591040
591104
591168
591232
591296
591360
591424
591488
591552
591616
591680
591744
591808
591872
591936
592000
592064
592128
592192
592256
592320
592384
592448
592512
592576
592640
592704
592768
592832
592896
592960
593024
593088
593152
593216
593280
593344
593408
593472
593536
593600
593664
593728
593792
593856
602112
602176
602240
602304
602368
602432
602496
602560
602624
602688
602752
602816
602880
602944
603008
603072
603136
603200
603264
603328
603392
603456
603520
603584
603648
603712
603776
603840
603904
603968
604032
604096
604160
604224
604288
604352
604416
604480
604544
604608
604672
604736
604800
604864
604928
604992
605056
605120
605184
605248
605312
605376
605440
605504
605568
605632
605696
605760
605824
605888
605952
606016
606080
606144
614400
614464
614528
614592
614656
614720
614784
614848
614912
614976
615040
615104
615168
615232
615296
615360
615424
615488
615552
615616
615680
615744
615808
615872
615936
616000
616064
616128
616192
616256
616320
616384
616448
616512
616576
616640
616704
616768
616832
616896
616960
617024
617088
617152
617216
617280
617344
617408
617472
617536
617600
617664
617728
617792
617856
617920
617984
618048
618112
618176
618240
618304
618368
618432
626688
626752
626816
626880
626944
627008
627072
627136
627200
627264
627328
627392
627456
627520
627584
627648
627712
627776
627840
627904
627968
628032
628096
628160
628224
628288
628352
628416
628480
628544
628608
628672
628736
628800
628864
628928
628992
629056
629120
629184
629248
629312
629376
629440
629504
629568
629632
629696
629760
629824
629888
629952
630016
630080
630144
630208
630272
630336
630400
630464
630528
630592
630656
630720
638976
639040
639104
639168
639232
639296
639360
639424
639488
639552
639616
639680
639744
639808
639872
639936
640000
640064
640128
640192
640256
640320
640384
640448
640512
640576
640640
640704
640768
640832
640896
640960
641024
641088
641152
641216
641280
641344
641408
641472
641536
641600
641664
641728
641792
641856
641920
641984
642048
642112
642176
642240
642304
642368
642432
642496
642560
642624
642688
642752
642816
642880
642944
643008
651264
651328
651392
651456
651520
651584
651648
651712
651776
651840
651904
651968
652032
652096
652160
652224
652288
652352
652416
652480
652544
652608
652672
652736
652800
652864
652928
652992
653056
653120
653184
653248
653312
653376
653440
653504
653568
653632
653696
653760
653824
653888
653952
654016
654080
654144
654208
654272
654336
654400
654464
654528
654592
654656
654720
654784
654848
654912
654976
655040
655104
655168
655232
655296
663552
663616
663680
663744
663808
663872
663936
664000
664064
664128
664192
664256
664320
664384
664448
664512
664576
664640
664704
664768
664832
664896
664960
665024
665088
665152
665216
665280
665344
665408
665472
665536
665600
665664
665728
665792
665856
665920
665984
666048
666112
666176
666240
666304
666368
666432
666496
666560
666624
666688
666752
666816
666880
666944
667008
667072
667136
667200
667264
667328
667392
667456
667520
667584
675840
675904
675968
676032
676096
676160
676224
676288
676352
676416
676480
676544
676608
676672
676736
676800
676864
676928
676992
677056
677120
677184
677248
677312
677376
677440
677504
677568
677632
677696
677760
677824
677888
677952
678016
678080
678144
678208
678272
678336
678400
678464
678528
678592
678656
678720
678784
678848
678912
678976
679040
679104
679168
679232
679296
679360
679424
679488
679552
679616
679680
679744
679808
679872
688128
688192
688256
688320
688384
688448
688512
688576
688640
688704
688768
688832
688896
688960
689024
689088
689152
689216
689280
689344
689408
689472
689536
689600
689664
689728
689792
689856
689920
689984
690048
690112
690176
690240
690304
690368
690432
690496
690560
690624
690688
690752
690816
690880
690944
691008
691072
691136
691200
691264
691328
691392
691456
691520
691584
691648
691712
691776
691840
691904
691968
692032
692096
692160
520192
520256
520320
520384
520448
520512
520576
520640
520704
520768
520832
520896
520960
521024
521088
521152
521216
521280
521344
521408
521472
521536
521600
521664
521728
521792
521856
521920
521984
522048
522112
522176
522240
522304
522368
522432
522496
522560
522624
522688
522752
522816
522880
522944
523008
523072
523136
523200
523264
523328
523392
523456
523520
523584
523648
523712
507904
514560
517120
507968
514624
517184
508032
514688
517248
508096
514752
517312
508160
514816
517376
508224
514880
517440
508288
514944
517504
508352
515008
517568
508416
515072
517632
508480
515136
517696
508544
515200
517760
508608
515264
517824
508672
515328
517888
508736
515392
517952
508800
515456
518016
508864
515520
518080
508928
515584
518144
508992
515648
518208
509056
515712
518272
509120
515776
518336
509184
515840
518400
509248
515904
518464
509312
515968
518528
509376
516032
518592
509440
524288
518656
509504
524352
518720
509568
524416
518784
509632
524480
518848
509696
524544
518912
509760
524608
518976
509824
524672
519040
509888
524736
519104
509952
524800
519168
510016
524864
519232
510080
524928
519296
510144
524992
519360
510208
525056
519424
510272
525120
519488
510336
525184
519552
510400
525248
519616
510464
525312
519680
510528
525376
519744
510592
525440
519808
510656
525504
519872
510720
525568
519936
510784
525632
520000
510848
525696
520064
510912
525760
520128
510976
525824
528384
511040
525888
528448
511104
525952
528512
511168
526016
528576
511232
526080
528640
511296
526144
528704
511360
526208
528768
511424
526272
528832
511488
526336
528896
511552
526400
528960
511616
526464
529024
511680
526528
529088
511744
526592
529152
511808
526656
529216
511872
526720
529280
529344
529408
529472
529536
529600
529664
529728
529792
529856
529920
529984
530048
530112
530176
530240
530304
530368
530432
530496
530560
530624
530688
530752
530816
530880
530944
531008
531072
531136
531200
531264
531328
531392
531456
531520
531584
531648
531712
531776
531840
531904
531968
532032
532096
532160
532224
532288
532352
532416
540672
540736
540800
540864
540928
540992
541056
541120
541184
541248
541312
541376
541440
541504
541568
541632
541696
541760
541824
541888
541952
542016
542080
542144
542208
542272
542336
542400
542464
542528
542592
542656
542720
542784
542848
542912
542976
543040
543104
543168
543232
543296
543360
543424
543488
543552
543616
543680
543744
543808
543872
543936
544000
544064
544128
544192
544256
544320
544384
544448
544512
544576
544640
544704
552960
553024
553088
553152
553216
553280
553344
553408
553472
553536
553600
553664
553728
553792
553856
553920
553984
554048
554112
554176
554240
554304
554368
554432
554496
554560
554624
554688
554752
554816
554880
554944
555008
555072
555136
555200
555264
555328
555392
555456
555520
555584
555648
555712
555776
555840
555904
555968
556032
556096
556160
556224
556288
556352
556416
556480
556544
556608
556672
556736
556800
556864
556928
556992
565248
565312
565376
565440
565504
565568
565632
565696
565760
565824
565888
565952
566016
566080
566144
566208
566272
566336
566400
566464
566528
566592
566656
566720
566784
566848
566912
566976
567040
567104
567168
567232
567296
567360
567424
567488
567552
567616
567680
567744
567808
567872
567936
568000
568064
568128
568192
568256
568320
568384
568448
568512
568576
568640
568704
568768
568832
568896
568960
569024
569088
569152
569216
569280
577536
577600
577664
577728
577792
577856
577920
577984
578048
578112
578176
578240
578304
578368
578432
578496
578560
578624
578688
578752
578816
578880
578944
579008
579072
579136
579200
579264
579328
579392
579456
579520
579584
579648
579712
579776
579840
579904
579968
580032
580096
580160
580224
580288
580352
580416
580480
580544
580608
580672
580736
580800
580864
580928
580992
581056
581120
581184
581248
581312
581376
581440
581504
581568
589824
589888
589952
590016
590080
590144
590208
590272
590336
590400
590464
590528
590592
590656
590720
590784
590848
590912
590976
591040
591104
591168
591232
591296
591360
591424
591488
591552
591616
591680
591744
591808
591872
591936
592000
592064
592128
592192
592256
592320
592384
592448
592512
592576
592640
592704
592768
592832
592896
592960
593024
593088
593152
593216
593280
593344
593408
593472
593536
593600
593664
593728
593792
593856
602112
602176
602240
602304
602368
602432
602496
602560
602624
602688
602752
602816
602880
602944
603008
603072
603136
603200
603264
603328
603392
603456
603520
603584
603648
603712
603776
603840
603904
603968
604032
604096
604160
604224
604288
604352
604416
604480
604544
604608
604672
604736
604800
604864
604928
604992
605056
605120
605184
605248
605312
605376
605440
605504
605568
605632
605696
605760
605824
605888
605952
606016
606080
606144
614400
614464
614528
614592
614656
614720
614784
614848
614912
614976
615040
615104
615168
615232
615296
615360
615424
615488
615552
615616
615680
615744
615808
615872
615936
616000
616064
616128
616192
616256
616320
616384
616448
616512
616576
616640
616704
616768
616832
616896
616960
617024
617088
617152
617216
617280
617344
617408
617472
617536
617600
617664
617728
617792
617856
617920
617984
618048
618112
618176
618240
618304
618368
618432
626688
626752
626816
626880
626944
627008
627072
627136
627200
627264
627328
627392
627456
627520
627584
627648
627712
627776
627840
627904
627968
628032
628096
628160
628224
628288
628352
628416
628480
628544
628608
628672
628736
628800
628864
628928
628992
629056
629120
629184
629248
629312
629376
629440
629504
629568
629632
629696
629760
629824
629888
629952
630016
630080
630144
630208
630272
630336
630400
630464
630528
630592
630656
630720
638976
639040
639104
639168
639232
639296
639360
639424
639488
639552
639616
639680
639744
639808
639872
639936
640000
640064
640128
640192
640256
640320
640384
640448
640512
640576
640640
640704
640768
640832
640896
640960
641024
641088
641152
641216
641280
641344
641408
641472
641536
641600
641664
641728
641792
641856
641920
641984
642048
642112
642176
642240
642304
642368
642432
642496
642560
642624
642688
642752
642816
642880
642944
643008
651264
651328
651392
651456
651520
651584
651648
651712
651776
651840
651904
651968
652032
652096
652160
652224
652288
652352
652416
652480
652544
652608
652672
652736
652800
652864
652928
652992
653056
653120
653184
653248
653312
653376
653440
653504
653568
653632
653696
653760
653824
653888
653952
654016
654080
654144
654208
654272
654336
654400
654464
654528
654592
654656
654720
654784
654848
654912
654976
655040
655104
655168
655232
655296
663552
663616
663680
663744
663808
663872
663936
664000
664064
664128
664192
664256
664320
664384
664448
664512
664576
664640
664704
664768
664832
664896
664960
665024
665088
665152
665216
665280
665344
665408
665472
665536
665600
665664
665728
665792
665856
665920
665984
666048
666112
666176
666240
666304
666368
666432
666496
666560
666624
666688
666752
666816
666880
666944
667008
667072
667136
667200
667264
667328
667392
667456
667520
667584
675840
675904
675968
676032
676096
676160
676224
676288
676352
676416
676480
676544
676608
676672
676736
676800
676864
676928
676992
677056
677120
677184
677248
677312
677376
677440
677504
677568
677632
677696
677760
677824
677888
677952
678016
678080
678144
678208
678272
678336
678400
678464
678528
678592
678656
678720
678784
678848
678912
678976
679040
679104
679168
679232
679296
679360
679424
679488
679552
679616
679680
679744
679808
679872
688128
688192
688256
688320
688384
688448
688512
688576
688640
688704
688768
688832
688896
688960
689024
689088
689152
689216
689280
689344
689408
689472
689536
689600
689664
689728
689792
689856
689920
689984
690048
690112
690176
690240
690304
690368
690432
690496
690560
690624
690688
690752
690816
690880
690944
691008
691072
691136
691200
691264
691328
691392
691456
691520
691584
691648
691712
691776
691840
691904
691968
692032
692096
692160
520192
520256
520320
520384
520448
520512
520576
520640
520704
520768
520832
520896
520960
521024
521088
521152
521216
521280
521344
521408
521472
521536
521600
521664
521728
521792
521856
521920
521984
522048
522112
522176
522240
522304
522368
522432
522496
522560
522624
522688
522752
522816
522880
522944
523008
523072
523136
523200
523264
523328
523392
523456
523520
523584
523648
523712
183424
8192
183360
418496
243456
183552
182848
182912
182976
183040
183104
183168
183232
183296
176576
176704
7872
176448
182784
176896
177216
218432
177344
182720
182592
174464
182656
182528
182464
182400
177152
182272
182336
218368
176512
171136
182208
177856
217088
217856
217792
217152
228352
182144
218496
218048
171200
229184
222976
228928
243328
182016
222912
222720
182080
222848
227072
227008
181696
227136
181632
181504
181568
229056
252672
228736
243392
181440
181248
427968
181312
181376
252800
221696
222080
252736
523776
181184
250176
181120
228800
181056
429888
249984
228992
250240

418880
181952
222208
257792
229120
The time taken is 0.493000 milliseconds
517120
Introducing buffer overflow - Accessing a location beyond the range
The value written is: 4
177856
507904
514560
243392
251328
224320
174400
175936
172096
177472
177920
178880
178688
174592
175488
175296
174528
217984
218304
176768
176640
171520
217344
217216
174784
174720
256192
222464
222592
252288
252224
227072
252096
Exiting @ tick 2219779000 because exiting with last active thread context
