Global frequency set at 1000000000000 ticks per second
gem5 Simulator System.  https://www.gem5.org
gem5 is copyrighted software; use the --copyright option for details.

gem5 version 22.0.0.2
gem5 compiled Dec 24 2022 05:40:17
gem5 started Dec 24 2022 05:43:01
gem5 executing on v100-gpu-4, pid 4500
command line: build/X86/gem5.opt configs/learning_gem5/Toy/two_level.py configs/learning_gem5/Toy/add -n 1000 -t 3

Beginning simulation!
1765761
1746561
1749121
1748481
1756161
2175361
1831041
2286081
2177921
2180481
2184961
1744641
2179201
1771521
2183681
1765121
1772161
1711361
1765761
78721
2170881
2178561
2171521
2283521
2181761
1712001
2190721
1764481
1778561
1794561
2182401
1745921
1752961
1746561
1717121
1716481
1753601
1752321
2192641
1745281
1716481
1778561
1772801
2184321
1774081
1744641
1744641
1746561
1717121
2192641
1832321
2498561
1713281
1712641
1713921
1714561
1788161
1786241
1785601
1779201
1786881
1832961
1760641
1759361
1760001
1774081
2183041
1773441
1715201
1767041
1768321
1768961
1716481
1776001
1833601
2434561
2559361
1747841
1751681
1717761
1749121
1719041
1747201
1749761
2192001
2191361
1756161
1762561
1834881
1835521
1836161
1836801
1710721
1837441
1720961
1767681
2172161
2282881
1779201
2434561
2288641
2222081
2564481
2173441
1778561
2513281
2243201
81281
2442241
2441601
82561
1828481
2223361
2815361
2526721
1744001
2172801
2284801
2286081
2179841
1716481
1772801
1787521
2177281
1832321
1759361
1744001
2287361
2288001
4298241
1834241
2526721
2220801
2289281
1711361
2290561
2289921
2499841
82561
81921
1765761
1767041
78721
1764481
1768961
1772161
2184321
2434561
1773441
1744641
1771521
2183681
1765121
1778561
2177921
2171521
2283521
2184961
2180481
1712001
2513921
2514561
5090561
5254401
81921
1765761
1767041
78721
1764481
1768961
1772161
2184321
2434561
1773441
1744641
1771521
2183681
1765121
1711361
1778561
2170881
2178561
2177921
2171521
2283521
2184961
2180481
1712001
4184961
5079041
5145601
5079681
5146241
5080321
5146881
5080961
5147521
5081601
5148161
5082241
5148801
5082881
5149441
5083521
5150081
5084161
5150721
5084801
5151361
5085441
5152001
5086081
5152641
5086721
5153281
5087361
5153921
5088001
5154561
5088641
5155201
5089281
5155841
5089921
5156481
5090561
5157121
5091201
5157761
5091841
5158401
5092481
5159041
5093121
5159681
5093761
5160321
5094401
5242881
5095041
5243521
5095681
5244161
5096321
5244801
5096961
5245441
5097601
5246081
5098241
5246721
5098881
5247361
5099521
5248001
5100161
5248641
5100801
5249281
5101441
5249921
5102081
5250561
5102721
5251201
5103361
5251841
5104001
5252481
5104641
5253121
5105281
5253761
5105921
5254401
5106561
5255041
5107201
5255681
5107841
5256321
5108481
5256961
5109121
5257601
5109761
5258241
5110401
5258881
5111041
5259521
5111681
5260161
5112321
5260801
5112961
5261441
5113601
5262081
5114241
5262721
5114881
5263361
5115521
5264001
5116161
5264641
5116801
5265281
5117441
5265921
5118081
5266561
5118721
5267201
5079041
5145601
5079681
5146241
5080321
5146881
5080961
5147521
5081601
5148161
5082241
5148801
5082881
5149441
5083521
5150081
5084161
5150721
5084801
5151361
5085441
5152001
5086081
5152641
5086721
5153281
5087361
5153921
5088001
5154561
5088641
5155201
5089281
5155841
5089921
5156481
5090561
5157121
5091201
5157761
5091841
5158401
5092481
5159041
5093121
5159681
5093761
5160321
5094401
5242881
5095041
5243521
5095681
5244161
5096321
5244801
5096961
5245441
5097601
5246081
5098241
5246721
5098881
5247361
5099521
5248001
5100161
5248641
5100801
5249281
5101441
5249921
5102081
5250561
5102721
5251201
5103361
5251841
5104001
5252481
5104641
5253121
5105281
5253761
5105921
5254401
5106561
5255041
5107201
5255681
5107841
5256321
5108481
5256961
5109121
5257601
5109761
5258241
5110401
5258881
5111041
5259521
5111681
5260161
5112321
5260801
5112961
5261441
5113601
5262081
5114241
5262721
5114881
5263361
5115521
5264001
5116161
5264641
5116801
5265281
5117441
5265921
5118081
5266561
5118721
5267201
5079041
5145601
5079681
5146241
5080321
5146881
5080961
5147521
5081601
5148161
5082241
5148801
5082881
5149441
5083521
5150081
5084161
5150721
5084801
5151361
5085441
5152001
5086081
5152641
5086721
5153281
5087361
5153921
5088001
5154561
5088641
5155201
5089281
5155841
5089921
5156481
5090561
5157121
5091201
5157761
5091841
5158401
5092481
5159041
5093121
5159681
5093761
5160321
5094401
5242881
5095041
5243521
5095681
5244161
5096321
5244801
5096961
5245441
5097601
5246081
5098241
5246721
5098881
5247361
5099521
5248001
5100161
5248641
5100801
5249281
5101441
5249921
5102081
5250561
5102721
5251201
5103361
5251841
5104001
5252481
5104641
5253121
5105281
5253761
5105921
5254401
5106561
5255041
5107201
5255681
5107841
5256321
5108481
5256961
5109121
5257601
5109761
5258241
5110401
5258881
5111041
5259521
5111681
5260161
5112321
5260801
5112961
5261441
5113601
5262081
5114241
5262721
5114881
5263361
5115521
5264001
5116161
5264641
5116801
5265281
5117441
5265921
5118081
5266561
5118721
5267201
81921
4184961
2434561
1765761
1767041
78721
1764481
1768961
1772161
2184321
1773441
1744641
1771521
2183681
1765121
1711361
1778561
2170881
2178561
2177921
2171521
2283521
2184961
2180481
1712001
2291841
2229761
2289281
2433281
2229121
2227201
2228481
2270721
2270081
2271361
1815681
2290561
2526721
2287361
2433921
4279681
2528001
2216961
2220801
2527361
5237761
2501761
2288001
4298881
2499841
2289921
2502401

4188801
2222081
2577921
2291201
The time taken is 0.493000 milliseconds
Introducing buffer overflow - Accessing a location beyond the range
The value written is: 4
1778561
5079041
5145601
2433921
2513281
2243201
1744001
1759361
1720961
1779201
1786881
1745921
1752961
1745281
2179841
2183041
1767681
1766401
1715201
2173441
2172161
1747841
1747201
2561921
2224641
2225921
2522881
2522241
2270721
2520961
Exiting @ tick 2219779000 because exiting with last active thread context
