Global frequency set at 1000000000000 ticks per second
gem5 Simulator System.  https://www.gem5.org
gem5 is copyrighted software; use the --copyright option for details.

gem5 version 22.0.0.2
gem5 compiled Dec 23 2022 05:41:00
gem5 started Dec 23 2022 05:42:54
gem5 executing on v100-gpu-4, pid 30013
command line: build/X86/gem5.opt configs/learning_gem5/Toy/two_level.py configs/learning_gem5/Toy/add -n 1 -t 1

Beginning simulation!
176576
174656
174912
174848
175616
217536
183104
228608
217792
218048
218496
174464
217920
177152
218368
176512
177216
171136
176576
7872
217088
217856
217152
228352
218176
171200
219072
176448
177856
179456
218240
174592
175296
174656
171712
171648
175360
175232
219264
174528
171648
177856
177280
218432
177408
174464
174464
174656
171712
219264
183232
249856
171328
171264
171392
171456
178816
178624
178560
177920
178688
183296
176064
175936
176000
177408
218304
177344
171520
176704
176832
176896
171648
177600
183360
243456
255936
174784
175168
171776
174912
171904
174720
174976
219200
219136
175616
176256
183488
183552
183616
183680
171072
183744
172096
176768
217216
228288
177920
243456
228864
222208
256448
217344
177856
251328
224320
8128
244224
244160
8256
182848
222336
281536
252672
174400
217280
228480
228608
217984
171648
177280
178752
217728
183232
175936
174400
228736
228800
429824
183424
252672
222080
228928
171136
229056
228992
249984
8256
8192
176576
176704
7872
176448
176896
177216
218432
243456
177344
174464
177152
218368
176512
177856
217792
217152
228352
218496
218048
171200
251392
251456
418496
229184
222976
243328
222912
222720
222848
227072
227008
227136
181568
243392

418880
222208
257792
229120
The time taken is 0.001000 milliseconds
Introducing buffer overflow - Accessing a location beyond the range
The value written is: 4
177856
243392
251328
224320
172096
177920
178688
174592
175296
174528
217984
218304
176768
176640
171520
217344
217216
174784
174720
256192
222464
222592
252288
252224
227072
252096
Exiting @ tick 864312000 because exiting with last active thread context
