
---------- Begin Simulation Statistics ----------
simSeconds                                   0.982931                       # Number of seconds simulated (Second)
simTicks                                 982931032000                       # Number of ticks simulated (Tick)
finalTick                                982931032000                       # Number of ticks from beginning of simulation (restored from checkpoints and never reset) (Tick)
simFreq                                  1000000000000                       # The number of ticks per simulated second ((Tick/Second))
hostSeconds                                    606.67                       # Real time elapsed on the host (Second)
hostTickRate                               1620207734                       # The number of ticks simulated per host second (ticks/s) ((Tick/Second))
hostMemory                                    8572100                       # Number of bytes of host memory used (Byte)
simInsts                                    385256424                       # Number of instructions simulated (Count)
simOps                                      763517616                       # Number of ops (including micro ops) simulated (Count)
hostInstRate                                   635035                       # Simulator instruction rate (inst/s) ((Count/Second))
hostOpRate                                    1258539                       # Simulator op (including micro ops) rate (op/s) ((Count/Second))
system.clk_domain.clock                          1000                       # Clock period in ticks (Tick)
system.clk_domain.voltage_domain.voltage            1                       # Voltage in Volts (Volt)
system.cpu.numCycles                        982931032                       # Number of cpu cycles simulated (Cycle)
system.cpu.numWorkItemsStarted                      0                       # Number of work items this cpu started (Count)
system.cpu.numWorkItemsCompleted                    0                       # Number of work items this cpu completed (Count)
system.cpu.dcache.demandHits::cpu.data      212920114                       # number of demand (read+write) hits (Count)
system.cpu.dcache.demandHits::total         212920114                       # number of demand (read+write) hits (Count)
system.cpu.dcache.overallHits::cpu.data     212920114                       # number of overall hits (Count)
system.cpu.dcache.overallHits::total        212920114                       # number of overall hits (Count)
system.cpu.dcache.demandMisses::cpu.data      2141005                       # number of demand (read+write) misses (Count)
system.cpu.dcache.demandMisses::total         2141005                       # number of demand (read+write) misses (Count)
system.cpu.dcache.overallMisses::cpu.data      2141005                       # number of overall misses (Count)
system.cpu.dcache.overallMisses::total        2141005                       # number of overall misses (Count)
system.cpu.dcache.demandMissLatency::cpu.data 271106680000                       # number of demand (read+write) miss ticks (Tick)
system.cpu.dcache.demandMissLatency::total 271106680000                       # number of demand (read+write) miss ticks (Tick)
system.cpu.dcache.overallMissLatency::cpu.data 271106680000                       # number of overall miss ticks (Tick)
system.cpu.dcache.overallMissLatency::total 271106680000                       # number of overall miss ticks (Tick)
system.cpu.dcache.demandAccesses::cpu.data    215061119                       # number of demand (read+write) accesses (Count)
system.cpu.dcache.demandAccesses::total     215061119                       # number of demand (read+write) accesses (Count)
system.cpu.dcache.overallAccesses::cpu.data    215061119                       # number of overall (read+write) accesses (Count)
system.cpu.dcache.overallAccesses::total    215061119                       # number of overall (read+write) accesses (Count)
system.cpu.dcache.demandMissRate::cpu.data     0.009955                       # miss rate for demand accesses (Ratio)
system.cpu.dcache.demandMissRate::total      0.009955                       # miss rate for demand accesses (Ratio)
system.cpu.dcache.overallMissRate::cpu.data     0.009955                       # miss rate for overall accesses (Ratio)
system.cpu.dcache.overallMissRate::total     0.009955                       # miss rate for overall accesses (Ratio)
system.cpu.dcache.demandAvgMissLatency::cpu.data 126625.897651                       # average overall miss latency in ticks ((Tick/Count))
system.cpu.dcache.demandAvgMissLatency::total 126625.897651                       # average overall miss latency in ticks ((Tick/Count))
system.cpu.dcache.overallAvgMissLatency::cpu.data 126625.897651                       # average overall miss latency ((Tick/Count))
system.cpu.dcache.overallAvgMissLatency::total 126625.897651                       # average overall miss latency ((Tick/Count))
system.cpu.dcache.blockedCycles::no_mshrs            0                       # number of cycles access was blocked (Cycle)
system.cpu.dcache.blockedCycles::no_targets            0                       # number of cycles access was blocked (Cycle)
system.cpu.dcache.blockedCauses::no_mshrs            0                       # number of times access was blocked (Count)
system.cpu.dcache.blockedCauses::no_targets            0                       # number of times access was blocked (Count)
system.cpu.dcache.avgBlocked::no_mshrs            nan                       # average number of cycles each access was blocked ((Cycle/Count))
system.cpu.dcache.avgBlocked::no_targets          nan                       # average number of cycles each access was blocked ((Cycle/Count))
system.cpu.dcache.writebacks::writebacks      2138409                       # number of writebacks (Count)
system.cpu.dcache.writebacks::total           2138409                       # number of writebacks (Count)
system.cpu.dcache.demandMshrMisses::cpu.data      2141005                       # number of demand (read+write) MSHR misses (Count)
system.cpu.dcache.demandMshrMisses::total      2141005                       # number of demand (read+write) MSHR misses (Count)
system.cpu.dcache.overallMshrMisses::cpu.data      2141005                       # number of overall MSHR misses (Count)
system.cpu.dcache.overallMshrMisses::total      2141005                       # number of overall MSHR misses (Count)
system.cpu.dcache.demandMshrMissLatency::cpu.data 266824670000                       # number of demand (read+write) MSHR miss ticks (Tick)
system.cpu.dcache.demandMshrMissLatency::total 266824670000                       # number of demand (read+write) MSHR miss ticks (Tick)
system.cpu.dcache.overallMshrMissLatency::cpu.data 266824670000                       # number of overall MSHR miss ticks (Tick)
system.cpu.dcache.overallMshrMissLatency::total 266824670000                       # number of overall MSHR miss ticks (Tick)
system.cpu.dcache.demandMshrMissRate::cpu.data     0.009955                       # mshr miss ratio for demand accesses (Ratio)
system.cpu.dcache.demandMshrMissRate::total     0.009955                       # mshr miss ratio for demand accesses (Ratio)
system.cpu.dcache.overallMshrMissRate::cpu.data     0.009955                       # mshr miss ratio for overall accesses (Ratio)
system.cpu.dcache.overallMshrMissRate::total     0.009955                       # mshr miss ratio for overall accesses (Ratio)
system.cpu.dcache.demandAvgMshrMissLatency::cpu.data 124625.897651                       # average overall mshr miss latency ((Tick/Count))
system.cpu.dcache.demandAvgMshrMissLatency::total 124625.897651                       # average overall mshr miss latency ((Tick/Count))
system.cpu.dcache.overallAvgMshrMissLatency::cpu.data 124625.897651                       # average overall mshr miss latency ((Tick/Count))
system.cpu.dcache.overallAvgMshrMissLatency::total 124625.897651                       # average overall mshr miss latency ((Tick/Count))
system.cpu.dcache.replacements                2140493                       # number of replacements (Count)
system.cpu.dcache.LockedRMWReadReq.hits::cpu.data            6                       # number of LockedRMWReadReq hits (Count)
system.cpu.dcache.LockedRMWReadReq.hits::total            6                       # number of LockedRMWReadReq hits (Count)
system.cpu.dcache.LockedRMWReadReq.accesses::cpu.data            6                       # number of LockedRMWReadReq accesses(hits+misses) (Count)
system.cpu.dcache.LockedRMWReadReq.accesses::total            6                       # number of LockedRMWReadReq accesses(hits+misses) (Count)
system.cpu.dcache.LockedRMWReadReq.mshrMissLatency::cpu.data         6000                       # number of LockedRMWReadReq MSHR miss ticks (Tick)
system.cpu.dcache.LockedRMWReadReq.mshrMissLatency::total         6000                       # number of LockedRMWReadReq MSHR miss ticks (Tick)
system.cpu.dcache.LockedRMWReadReq.avgMshrMissLatency::cpu.data          inf                       # average LockedRMWReadReq mshr miss latency ((Tick/Count))
system.cpu.dcache.LockedRMWReadReq.avgMshrMissLatency::total          inf                       # average LockedRMWReadReq mshr miss latency ((Tick/Count))
system.cpu.dcache.LockedRMWWriteReq.hits::cpu.data            6                       # number of LockedRMWWriteReq hits (Count)
system.cpu.dcache.LockedRMWWriteReq.hits::total            6                       # number of LockedRMWWriteReq hits (Count)
system.cpu.dcache.LockedRMWWriteReq.accesses::cpu.data            6                       # number of LockedRMWWriteReq accesses(hits+misses) (Count)
system.cpu.dcache.LockedRMWWriteReq.accesses::total            6                       # number of LockedRMWWriteReq accesses(hits+misses) (Count)
system.cpu.dcache.ReadReq.hits::cpu.data    151799578                       # number of ReadReq hits (Count)
system.cpu.dcache.ReadReq.hits::total       151799578                       # number of ReadReq hits (Count)
system.cpu.dcache.ReadReq.misses::cpu.data         2742                       # number of ReadReq misses (Count)
system.cpu.dcache.ReadReq.misses::total          2742                       # number of ReadReq misses (Count)
system.cpu.dcache.ReadReq.missLatency::cpu.data    262200000                       # number of ReadReq miss ticks (Tick)
system.cpu.dcache.ReadReq.missLatency::total    262200000                       # number of ReadReq miss ticks (Tick)
system.cpu.dcache.ReadReq.accesses::cpu.data    151802320                       # number of ReadReq accesses(hits+misses) (Count)
system.cpu.dcache.ReadReq.accesses::total    151802320                       # number of ReadReq accesses(hits+misses) (Count)
system.cpu.dcache.ReadReq.missRate::cpu.data     0.000018                       # miss rate for ReadReq accesses (Ratio)
system.cpu.dcache.ReadReq.missRate::total     0.000018                       # miss rate for ReadReq accesses (Ratio)
system.cpu.dcache.ReadReq.avgMissLatency::cpu.data 95623.632385                       # average ReadReq miss latency ((Tick/Count))
system.cpu.dcache.ReadReq.avgMissLatency::total 95623.632385                       # average ReadReq miss latency ((Tick/Count))
system.cpu.dcache.ReadReq.mshrMisses::cpu.data         2742                       # number of ReadReq MSHR misses (Count)
system.cpu.dcache.ReadReq.mshrMisses::total         2742                       # number of ReadReq MSHR misses (Count)
system.cpu.dcache.ReadReq.mshrMissLatency::cpu.data    256716000                       # number of ReadReq MSHR miss ticks (Tick)
system.cpu.dcache.ReadReq.mshrMissLatency::total    256716000                       # number of ReadReq MSHR miss ticks (Tick)
system.cpu.dcache.ReadReq.mshrMissRate::cpu.data     0.000018                       # mshr miss rate for ReadReq accesses (Ratio)
system.cpu.dcache.ReadReq.mshrMissRate::total     0.000018                       # mshr miss rate for ReadReq accesses (Ratio)
system.cpu.dcache.ReadReq.avgMshrMissLatency::cpu.data 93623.632385                       # average ReadReq mshr miss latency ((Tick/Count))
system.cpu.dcache.ReadReq.avgMshrMissLatency::total 93623.632385                       # average ReadReq mshr miss latency ((Tick/Count))
system.cpu.dcache.WriteReq.hits::cpu.data     61120536                       # number of WriteReq hits (Count)
system.cpu.dcache.WriteReq.hits::total       61120536                       # number of WriteReq hits (Count)
system.cpu.dcache.WriteReq.misses::cpu.data      2138263                       # number of WriteReq misses (Count)
system.cpu.dcache.WriteReq.misses::total      2138263                       # number of WriteReq misses (Count)
system.cpu.dcache.WriteReq.missLatency::cpu.data 270844480000                       # number of WriteReq miss ticks (Tick)
system.cpu.dcache.WriteReq.missLatency::total 270844480000                       # number of WriteReq miss ticks (Tick)
system.cpu.dcache.WriteReq.accesses::cpu.data     63258799                       # number of WriteReq accesses(hits+misses) (Count)
system.cpu.dcache.WriteReq.accesses::total     63258799                       # number of WriteReq accesses(hits+misses) (Count)
system.cpu.dcache.WriteReq.missRate::cpu.data     0.033802                       # miss rate for WriteReq accesses (Ratio)
system.cpu.dcache.WriteReq.missRate::total     0.033802                       # miss rate for WriteReq accesses (Ratio)
system.cpu.dcache.WriteReq.avgMissLatency::cpu.data 126665.653383                       # average WriteReq miss latency ((Tick/Count))
system.cpu.dcache.WriteReq.avgMissLatency::total 126665.653383                       # average WriteReq miss latency ((Tick/Count))
system.cpu.dcache.WriteReq.mshrMisses::cpu.data      2138263                       # number of WriteReq MSHR misses (Count)
system.cpu.dcache.WriteReq.mshrMisses::total      2138263                       # number of WriteReq MSHR misses (Count)
system.cpu.dcache.WriteReq.mshrMissLatency::cpu.data 266567954000                       # number of WriteReq MSHR miss ticks (Tick)
system.cpu.dcache.WriteReq.mshrMissLatency::total 266567954000                       # number of WriteReq MSHR miss ticks (Tick)
system.cpu.dcache.WriteReq.mshrMissRate::cpu.data     0.033802                       # mshr miss rate for WriteReq accesses (Ratio)
system.cpu.dcache.WriteReq.mshrMissRate::total     0.033802                       # mshr miss rate for WriteReq accesses (Ratio)
system.cpu.dcache.WriteReq.avgMshrMissLatency::cpu.data 124665.653383                       # average WriteReq mshr miss latency ((Tick/Count))
system.cpu.dcache.WriteReq.avgMshrMissLatency::total 124665.653383                       # average WriteReq mshr miss latency ((Tick/Count))
system.cpu.dcache.power_state.pwrStateResidencyTicks::UNDEFINED 982931032000                       # Cumulative time (in ticks) in various power states (Tick)
system.cpu.dcache.tags.tagsInUse           511.950468                       # Average ticks per tags in use ((Tick/Count))
system.cpu.dcache.tags.totalRefs            215061131                       # Total number of references to valid blocks. (Count)
system.cpu.dcache.tags.sampledRefs            2141005                       # Sample count of references to valid blocks. (Count)
system.cpu.dcache.tags.avgRefs             100.448682                       # Average number of references to valid blocks. ((Count/Count))
system.cpu.dcache.tags.warmupTick              263000                       # The tick when the warmup percentage was hit. (Tick)
system.cpu.dcache.tags.occupancies::cpu.data   511.950468                       # Average occupied blocks per tick, per requestor ((Count/Tick))
system.cpu.dcache.tags.avgOccs::cpu.data     0.999903                       # Average percentage of cache occupancy ((Ratio/Tick))
system.cpu.dcache.tags.avgOccs::total        0.999903                       # Average percentage of cache occupancy ((Ratio/Tick))
system.cpu.dcache.tags.occupanciesTaskId::1024          512                       # Occupied blocks per task id (Count)
system.cpu.dcache.tags.ageTaskId_1024::0           35                       # Occupied blocks per task id, per block age (Count)
system.cpu.dcache.tags.ageTaskId_1024::1          213                       # Occupied blocks per task id, per block age (Count)
system.cpu.dcache.tags.ageTaskId_1024::2          256                       # Occupied blocks per task id, per block age (Count)
system.cpu.dcache.tags.ageTaskId_1024::3            2                       # Occupied blocks per task id, per block age (Count)
system.cpu.dcache.tags.ageTaskId_1024::4            6                       # Occupied blocks per task id, per block age (Count)
system.cpu.dcache.tags.ratioOccsTaskId::1024            1                       # Ratio of occupied blocks and all blocks, per task id (Ratio)
system.cpu.dcache.tags.tagAccesses          432263267                       # Number of tag accesses (Count)
system.cpu.dcache.tags.dataAccesses         432263267                       # Number of data accesses (Count)
system.cpu.dcache.tags.power_state.pwrStateResidencyTicks::UNDEFINED 982931032000                       # Cumulative time (in ticks) in various power states (Tick)
system.cpu.exec_context.thread_0.numInsts    385256424                       # Number of instructions committed (Count)
system.cpu.exec_context.thread_0.numOps     763517616                       # Number of ops (including micro ops) committed (Count)
system.cpu.exec_context.thread_0.numIntAluAccesses    763494630                       # Number of integer alu accesses (Count)
system.cpu.exec_context.thread_0.numFpAluAccesses         4104                       # Number of float alu accesses (Count)
system.cpu.exec_context.thread_0.numVecAluAccesses            0                       # Number of vector alu accesses (Count)
system.cpu.exec_context.thread_0.numCallsReturns     12001354                       # Number of times a function call or return occured (Count)
system.cpu.exec_context.thread_0.numCondCtrlInsts     53298129                       # Number of instructions that are conditional controls (Count)
system.cpu.exec_context.thread_0.numIntInsts    763494630                       # Number of integer instructions (Count)
system.cpu.exec_context.thread_0.numFpInsts         4104                       # Number of float instructions (Count)
system.cpu.exec_context.thread_0.numVecInsts            0                       # Number of vector instructions (Count)
system.cpu.exec_context.thread_0.numIntRegReads    855990789                       # Number of times the integer registers were read (Count)
system.cpu.exec_context.thread_0.numIntRegWrites    560076101                       # Number of times the integer registers were written (Count)
system.cpu.exec_context.thread_0.numFpRegReads         6117                       # Number of times the floating registers were read (Count)
system.cpu.exec_context.thread_0.numFpRegWrites         3019                       # Number of times the floating registers were written (Count)
system.cpu.exec_context.thread_0.numVecRegReads            0                       # Number of times the vector registers were read (Count)
system.cpu.exec_context.thread_0.numVecRegWrites            0                       # Number of times the vector registers were written (Count)
system.cpu.exec_context.thread_0.numVecPredRegReads            0                       # Number of times the predicate registers were read (Count)
system.cpu.exec_context.thread_0.numVecPredRegWrites            0                       # Number of times the predicate registers were written (Count)
system.cpu.exec_context.thread_0.numCCRegReads    326880690                       # Number of times the CC registers were read (Count)
system.cpu.exec_context.thread_0.numCCRegWrites    255016064                       # Number of times the CC registers were written (Count)
system.cpu.exec_context.thread_0.numMiscRegReads    394913993                       # Number of times the Misc registers were read (Count)
system.cpu.exec_context.thread_0.numMiscRegWrites           63                       # Number of times the Misc registers were written (Count)
system.cpu.exec_context.thread_0.numMemRefs    215065089                       # Number of memory refs (Count)
system.cpu.exec_context.thread_0.numLoadInsts    151802369                       # Number of load instructions (Count)
system.cpu.exec_context.thread_0.numStoreInsts     63262720                       # Number of store instructions (Count)
system.cpu.exec_context.thread_0.numIdleCycles     0.001000                       # Number of idle cycles (Cycle)
system.cpu.exec_context.thread_0.numBusyCycles 982931031.999000                       # Number of busy cycles (Cycle)
system.cpu.exec_context.thread_0.notIdleFraction     1.000000                       # Percentage of non-idle cycles (Ratio)
system.cpu.exec_context.thread_0.idleFraction     0.000000                       # Percentage of idle cycles (Ratio)
system.cpu.exec_context.thread_0.numBranches     87925040                       # Number of branches fetched (Count)
system.cpu.exec_context.thread_0.statExecutedInstType::No_OpClass          518      0.00%      0.00% # Class of executed instruction. (Count)
system.cpu.exec_context.thread_0.statExecutedInstType::IntAlu    546452277     71.57%     71.57% # Class of executed instruction. (Count)
system.cpu.exec_context.thread_0.statExecutedInstType::IntMult      2000018      0.26%     71.83% # Class of executed instruction. (Count)
system.cpu.exec_context.thread_0.statExecutedInstType::IntDiv         1188      0.00%     71.83% # Class of executed instruction. (Count)
system.cpu.exec_context.thread_0.statExecutedInstType::FloatAdd           78      0.00%     71.83% # Class of executed instruction. (Count)
system.cpu.exec_context.thread_0.statExecutedInstType::FloatCmp            0      0.00%     71.83% # Class of executed instruction. (Count)
system.cpu.exec_context.thread_0.statExecutedInstType::FloatCvt          112      0.00%     71.83% # Class of executed instruction. (Count)
system.cpu.exec_context.thread_0.statExecutedInstType::FloatMult            0      0.00%     71.83% # Class of executed instruction. (Count)
system.cpu.exec_context.thread_0.statExecutedInstType::FloatMultAcc            0      0.00%     71.83% # Class of executed instruction. (Count)
system.cpu.exec_context.thread_0.statExecutedInstType::FloatDiv            0      0.00%     71.83% # Class of executed instruction. (Count)
system.cpu.exec_context.thread_0.statExecutedInstType::FloatMisc            0      0.00%     71.83% # Class of executed instruction. (Count)
system.cpu.exec_context.thread_0.statExecutedInstType::FloatSqrt            0      0.00%     71.83% # Class of executed instruction. (Count)
system.cpu.exec_context.thread_0.statExecutedInstType::SimdAdd          346      0.00%     71.83% # Class of executed instruction. (Count)
system.cpu.exec_context.thread_0.statExecutedInstType::SimdAddAcc            0      0.00%     71.83% # Class of executed instruction. (Count)
system.cpu.exec_context.thread_0.statExecutedInstType::SimdAlu          498      0.00%     71.83% # Class of executed instruction. (Count)
system.cpu.exec_context.thread_0.statExecutedInstType::SimdCmp            0      0.00%     71.83% # Class of executed instruction. (Count)
system.cpu.exec_context.thread_0.statExecutedInstType::SimdCvt          780      0.00%     71.83% # Class of executed instruction. (Count)
system.cpu.exec_context.thread_0.statExecutedInstType::SimdMisc          546      0.00%     71.83% # Class of executed instruction. (Count)
system.cpu.exec_context.thread_0.statExecutedInstType::SimdMult            0      0.00%     71.83% # Class of executed instruction. (Count)
system.cpu.exec_context.thread_0.statExecutedInstType::SimdMultAcc            0      0.00%     71.83% # Class of executed instruction. (Count)
system.cpu.exec_context.thread_0.statExecutedInstType::SimdShift          155      0.00%     71.83% # Class of executed instruction. (Count)
system.cpu.exec_context.thread_0.statExecutedInstType::SimdShiftAcc            0      0.00%     71.83% # Class of executed instruction. (Count)
system.cpu.exec_context.thread_0.statExecutedInstType::SimdDiv            0      0.00%     71.83% # Class of executed instruction. (Count)
system.cpu.exec_context.thread_0.statExecutedInstType::SimdSqrt            0      0.00%     71.83% # Class of executed instruction. (Count)
system.cpu.exec_context.thread_0.statExecutedInstType::SimdFloatAdd            0      0.00%     71.83% # Class of executed instruction. (Count)
system.cpu.exec_context.thread_0.statExecutedInstType::SimdFloatAlu            0      0.00%     71.83% # Class of executed instruction. (Count)
system.cpu.exec_context.thread_0.statExecutedInstType::SimdFloatCmp            0      0.00%     71.83% # Class of executed instruction. (Count)
system.cpu.exec_context.thread_0.statExecutedInstType::SimdFloatCvt            0      0.00%     71.83% # Class of executed instruction. (Count)
system.cpu.exec_context.thread_0.statExecutedInstType::SimdFloatDiv            0      0.00%     71.83% # Class of executed instruction. (Count)
system.cpu.exec_context.thread_0.statExecutedInstType::SimdFloatMisc            0      0.00%     71.83% # Class of executed instruction. (Count)
system.cpu.exec_context.thread_0.statExecutedInstType::SimdFloatMult            0      0.00%     71.83% # Class of executed instruction. (Count)
system.cpu.exec_context.thread_0.statExecutedInstType::SimdFloatMultAcc            0      0.00%     71.83% # Class of executed instruction. (Count)
system.cpu.exec_context.thread_0.statExecutedInstType::SimdFloatSqrt            0      0.00%     71.83% # Class of executed instruction. (Count)
system.cpu.exec_context.thread_0.statExecutedInstType::SimdReduceAdd            0      0.00%     71.83% # Class of executed instruction. (Count)
system.cpu.exec_context.thread_0.statExecutedInstType::SimdReduceAlu            0      0.00%     71.83% # Class of executed instruction. (Count)
system.cpu.exec_context.thread_0.statExecutedInstType::SimdReduceCmp            0      0.00%     71.83% # Class of executed instruction. (Count)
system.cpu.exec_context.thread_0.statExecutedInstType::SimdFloatReduceAdd            0      0.00%     71.83% # Class of executed instruction. (Count)
system.cpu.exec_context.thread_0.statExecutedInstType::SimdFloatReduceCmp            0      0.00%     71.83% # Class of executed instruction. (Count)
system.cpu.exec_context.thread_0.statExecutedInstType::SimdAes            0      0.00%     71.83% # Class of executed instruction. (Count)
system.cpu.exec_context.thread_0.statExecutedInstType::SimdAesMix            0      0.00%     71.83% # Class of executed instruction. (Count)
system.cpu.exec_context.thread_0.statExecutedInstType::SimdSha1Hash            0      0.00%     71.83% # Class of executed instruction. (Count)
system.cpu.exec_context.thread_0.statExecutedInstType::SimdSha1Hash2            0      0.00%     71.83% # Class of executed instruction. (Count)
system.cpu.exec_context.thread_0.statExecutedInstType::SimdSha256Hash            0      0.00%     71.83% # Class of executed instruction. (Count)
system.cpu.exec_context.thread_0.statExecutedInstType::SimdSha256Hash2            0      0.00%     71.83% # Class of executed instruction. (Count)
system.cpu.exec_context.thread_0.statExecutedInstType::SimdShaSigma2            0      0.00%     71.83% # Class of executed instruction. (Count)
system.cpu.exec_context.thread_0.statExecutedInstType::SimdShaSigma3            0      0.00%     71.83% # Class of executed instruction. (Count)
system.cpu.exec_context.thread_0.statExecutedInstType::SimdPredAlu            0      0.00%     71.83% # Class of executed instruction. (Count)
system.cpu.exec_context.thread_0.statExecutedInstType::MemRead    151801372     19.88%     91.71% # Class of executed instruction. (Count)
system.cpu.exec_context.thread_0.statExecutedInstType::MemWrite     63262175      8.29%    100.00% # Class of executed instruction. (Count)
system.cpu.exec_context.thread_0.statExecutedInstType::FloatMemRead          997      0.00%    100.00% # Class of executed instruction. (Count)
system.cpu.exec_context.thread_0.statExecutedInstType::FloatMemWrite          545      0.00%    100.00% # Class of executed instruction. (Count)
system.cpu.exec_context.thread_0.statExecutedInstType::IprAccess            0      0.00%    100.00% # Class of executed instruction. (Count)
system.cpu.exec_context.thread_0.statExecutedInstType::InstPrefetch            0      0.00%    100.00% # Class of executed instruction. (Count)
system.cpu.exec_context.thread_0.statExecutedInstType::total    763521605                       # Class of executed instruction. (Count)
system.cpu.icache.demandHits::cpu.inst      498803612                       # number of demand (read+write) hits (Count)
system.cpu.icache.demandHits::total         498803612                       # number of demand (read+write) hits (Count)
system.cpu.icache.overallHits::cpu.inst     498803612                       # number of overall hits (Count)
system.cpu.icache.overallHits::total        498803612                       # number of overall hits (Count)
system.cpu.icache.demandMisses::cpu.inst          812                       # number of demand (read+write) misses (Count)
system.cpu.icache.demandMisses::total             812                       # number of demand (read+write) misses (Count)
system.cpu.icache.overallMisses::cpu.inst          812                       # number of overall misses (Count)
system.cpu.icache.overallMisses::total            812                       # number of overall misses (Count)
system.cpu.icache.demandMissLatency::cpu.inst    100616000                       # number of demand (read+write) miss ticks (Tick)
system.cpu.icache.demandMissLatency::total    100616000                       # number of demand (read+write) miss ticks (Tick)
system.cpu.icache.overallMissLatency::cpu.inst    100616000                       # number of overall miss ticks (Tick)
system.cpu.icache.overallMissLatency::total    100616000                       # number of overall miss ticks (Tick)
system.cpu.icache.demandAccesses::cpu.inst    498804424                       # number of demand (read+write) accesses (Count)
system.cpu.icache.demandAccesses::total     498804424                       # number of demand (read+write) accesses (Count)
system.cpu.icache.overallAccesses::cpu.inst    498804424                       # number of overall (read+write) accesses (Count)
system.cpu.icache.overallAccesses::total    498804424                       # number of overall (read+write) accesses (Count)
system.cpu.icache.demandMissRate::cpu.inst     0.000002                       # miss rate for demand accesses (Ratio)
system.cpu.icache.demandMissRate::total      0.000002                       # miss rate for demand accesses (Ratio)
system.cpu.icache.overallMissRate::cpu.inst     0.000002                       # miss rate for overall accesses (Ratio)
system.cpu.icache.overallMissRate::total     0.000002                       # miss rate for overall accesses (Ratio)
system.cpu.icache.demandAvgMissLatency::cpu.inst 123911.330049                       # average overall miss latency in ticks ((Tick/Count))
system.cpu.icache.demandAvgMissLatency::total 123911.330049                       # average overall miss latency in ticks ((Tick/Count))
system.cpu.icache.overallAvgMissLatency::cpu.inst 123911.330049                       # average overall miss latency ((Tick/Count))
system.cpu.icache.overallAvgMissLatency::total 123911.330049                       # average overall miss latency ((Tick/Count))
system.cpu.icache.blockedCycles::no_mshrs            0                       # number of cycles access was blocked (Cycle)
system.cpu.icache.blockedCycles::no_targets            0                       # number of cycles access was blocked (Cycle)
system.cpu.icache.blockedCauses::no_mshrs            0                       # number of times access was blocked (Count)
system.cpu.icache.blockedCauses::no_targets            0                       # number of times access was blocked (Count)
system.cpu.icache.avgBlocked::no_mshrs            nan                       # average number of cycles each access was blocked ((Cycle/Count))
system.cpu.icache.avgBlocked::no_targets          nan                       # average number of cycles each access was blocked ((Cycle/Count))
system.cpu.icache.demandMshrMisses::cpu.inst          812                       # number of demand (read+write) MSHR misses (Count)
system.cpu.icache.demandMshrMisses::total          812                       # number of demand (read+write) MSHR misses (Count)
system.cpu.icache.overallMshrMisses::cpu.inst          812                       # number of overall MSHR misses (Count)
system.cpu.icache.overallMshrMisses::total          812                       # number of overall MSHR misses (Count)
system.cpu.icache.demandMshrMissLatency::cpu.inst     98992000                       # number of demand (read+write) MSHR miss ticks (Tick)
system.cpu.icache.demandMshrMissLatency::total     98992000                       # number of demand (read+write) MSHR miss ticks (Tick)
system.cpu.icache.overallMshrMissLatency::cpu.inst     98992000                       # number of overall MSHR miss ticks (Tick)
system.cpu.icache.overallMshrMissLatency::total     98992000                       # number of overall MSHR miss ticks (Tick)
system.cpu.icache.demandMshrMissRate::cpu.inst     0.000002                       # mshr miss ratio for demand accesses (Ratio)
system.cpu.icache.demandMshrMissRate::total     0.000002                       # mshr miss ratio for demand accesses (Ratio)
system.cpu.icache.overallMshrMissRate::cpu.inst     0.000002                       # mshr miss ratio for overall accesses (Ratio)
system.cpu.icache.overallMshrMissRate::total     0.000002                       # mshr miss ratio for overall accesses (Ratio)
system.cpu.icache.demandAvgMshrMissLatency::cpu.inst 121911.330049                       # average overall mshr miss latency ((Tick/Count))
system.cpu.icache.demandAvgMshrMissLatency::total 121911.330049                       # average overall mshr miss latency ((Tick/Count))
system.cpu.icache.overallAvgMshrMissLatency::cpu.inst 121911.330049                       # average overall mshr miss latency ((Tick/Count))
system.cpu.icache.overallAvgMshrMissLatency::total 121911.330049                       # average overall mshr miss latency ((Tick/Count))
system.cpu.icache.replacements                    328                       # number of replacements (Count)
system.cpu.icache.ReadReq.hits::cpu.inst    498803612                       # number of ReadReq hits (Count)
system.cpu.icache.ReadReq.hits::total       498803612                       # number of ReadReq hits (Count)
system.cpu.icache.ReadReq.misses::cpu.inst          812                       # number of ReadReq misses (Count)
system.cpu.icache.ReadReq.misses::total           812                       # number of ReadReq misses (Count)
system.cpu.icache.ReadReq.missLatency::cpu.inst    100616000                       # number of ReadReq miss ticks (Tick)
system.cpu.icache.ReadReq.missLatency::total    100616000                       # number of ReadReq miss ticks (Tick)
system.cpu.icache.ReadReq.accesses::cpu.inst    498804424                       # number of ReadReq accesses(hits+misses) (Count)
system.cpu.icache.ReadReq.accesses::total    498804424                       # number of ReadReq accesses(hits+misses) (Count)
system.cpu.icache.ReadReq.missRate::cpu.inst     0.000002                       # miss rate for ReadReq accesses (Ratio)
system.cpu.icache.ReadReq.missRate::total     0.000002                       # miss rate for ReadReq accesses (Ratio)
system.cpu.icache.ReadReq.avgMissLatency::cpu.inst 123911.330049                       # average ReadReq miss latency ((Tick/Count))
system.cpu.icache.ReadReq.avgMissLatency::total 123911.330049                       # average ReadReq miss latency ((Tick/Count))
system.cpu.icache.ReadReq.mshrMisses::cpu.inst          812                       # number of ReadReq MSHR misses (Count)
system.cpu.icache.ReadReq.mshrMisses::total          812                       # number of ReadReq MSHR misses (Count)
system.cpu.icache.ReadReq.mshrMissLatency::cpu.inst     98992000                       # number of ReadReq MSHR miss ticks (Tick)
system.cpu.icache.ReadReq.mshrMissLatency::total     98992000                       # number of ReadReq MSHR miss ticks (Tick)
system.cpu.icache.ReadReq.mshrMissRate::cpu.inst     0.000002                       # mshr miss rate for ReadReq accesses (Ratio)
system.cpu.icache.ReadReq.mshrMissRate::total     0.000002                       # mshr miss rate for ReadReq accesses (Ratio)
system.cpu.icache.ReadReq.avgMshrMissLatency::cpu.inst 121911.330049                       # average ReadReq mshr miss latency ((Tick/Count))
system.cpu.icache.ReadReq.avgMshrMissLatency::total 121911.330049                       # average ReadReq mshr miss latency ((Tick/Count))
system.cpu.icache.power_state.pwrStateResidencyTicks::UNDEFINED 982931032000                       # Cumulative time (in ticks) in various power states (Tick)
system.cpu.icache.tags.tagsInUse           476.828055                       # Average ticks per tags in use ((Tick/Count))
system.cpu.icache.tags.totalRefs            498804424                       # Total number of references to valid blocks. (Count)
system.cpu.icache.tags.sampledRefs                812                       # Sample count of references to valid blocks. (Count)
system.cpu.icache.tags.avgRefs           614291.162562                       # Average number of references to valid blocks. ((Count/Count))
system.cpu.icache.tags.warmupTick              130000                       # The tick when the warmup percentage was hit. (Tick)
system.cpu.icache.tags.occupancies::cpu.inst   476.828055                       # Average occupied blocks per tick, per requestor ((Count/Tick))
system.cpu.icache.tags.avgOccs::cpu.inst     0.931305                       # Average percentage of cache occupancy ((Ratio/Tick))
system.cpu.icache.tags.avgOccs::total        0.931305                       # Average percentage of cache occupancy ((Ratio/Tick))
system.cpu.icache.tags.occupanciesTaskId::1024          484                       # Occupied blocks per task id (Count)
system.cpu.icache.tags.ageTaskId_1024::0           33                       # Occupied blocks per task id, per block age (Count)
system.cpu.icache.tags.ageTaskId_1024::1           18                       # Occupied blocks per task id, per block age (Count)
system.cpu.icache.tags.ageTaskId_1024::4          433                       # Occupied blocks per task id, per block age (Count)
system.cpu.icache.tags.ratioOccsTaskId::1024     0.945312                       # Ratio of occupied blocks and all blocks, per task id (Ratio)
system.cpu.icache.tags.tagAccesses          997609660                       # Number of tag accesses (Count)
system.cpu.icache.tags.dataAccesses         997609660                       # Number of data accesses (Count)
system.cpu.icache.tags.power_state.pwrStateResidencyTicks::UNDEFINED 982931032000                       # Cumulative time (in ticks) in various power states (Tick)
system.cpu.interrupts.clk_domain.clock          16000                       # Clock period in ticks (Tick)
system.cpu.mmu.dtb.rdAccesses               151802372                       # TLB accesses on read requests (Count)
system.cpu.mmu.dtb.wrAccesses                63262720                       # TLB accesses on write requests (Count)
system.cpu.mmu.dtb.rdMisses                       203                       # TLB misses on read requests (Count)
system.cpu.mmu.dtb.wrMisses                    984078                       # TLB misses on write requests (Count)
system.cpu.mmu.dtb.walker.power_state.pwrStateResidencyTicks::UNDEFINED 982931032000                       # Cumulative time (in ticks) in various power states (Tick)
system.cpu.mmu.itb.rdAccesses                       0                       # TLB accesses on read requests (Count)
system.cpu.mmu.itb.wrAccesses               498804449                       # TLB accesses on write requests (Count)
system.cpu.mmu.itb.rdMisses                         0                       # TLB misses on read requests (Count)
system.cpu.mmu.itb.wrMisses                       130                       # TLB misses on write requests (Count)
system.cpu.mmu.itb.walker.power_state.pwrStateResidencyTicks::UNDEFINED 982931032000                       # Cumulative time (in ticks) in various power states (Tick)
system.cpu.power_state.pwrStateResidencyTicks::ON 982931032000                       # Cumulative time (in ticks) in various power states (Tick)
system.cpu.thread_0.numInsts                        0                       # Number of Instructions committed (Count)
system.cpu.thread_0.numOps                          0                       # Number of Ops committed (Count)
system.cpu.thread_0.numMemRefs                      0                       # Number of Memory References (Count)
system.cpu.workload.numSyscalls                    28                       # Number of system calls (Count)
system.l2bus.transDist::ReadResp                 3554                       # Transaction distribution (Count)
system.l2bus.transDist::WritebackDirty        4246996                       # Transaction distribution (Count)
system.l2bus.transDist::CleanEvict              48874                       # Transaction distribution (Count)
system.l2bus.transDist::ReadExReq             2138263                       # Transaction distribution (Count)
system.l2bus.transDist::ReadExResp            2138263                       # Transaction distribution (Count)
system.l2bus.transDist::ReadSharedReq            3554                       # Transaction distribution (Count)
system.l2bus.pktCount_system.cpu.icache.mem_side_port::system.l2cache.cpu_side_port         1952                       # Packet count per connected requestor and responder (Count)
system.l2bus.pktCount_system.cpu.dcache.mem_side_port::system.l2cache.cpu_side_port      6422503                       # Packet count per connected requestor and responder (Count)
system.l2bus.pktCount::total                  6424455                       # Packet count per connected requestor and responder (Count)
system.l2bus.pktSize_system.cpu.icache.mem_side_port::system.l2cache.cpu_side_port        51968                       # Cumulative packet size per connected requestor and responder (Byte)
system.l2bus.pktSize_system.cpu.dcache.mem_side_port::system.l2cache.cpu_side_port    273882496                       # Cumulative packet size per connected requestor and responder (Byte)
system.l2bus.pktSize::total                 273934464                       # Cumulative packet size per connected requestor and responder (Byte)
system.l2bus.snoops                           2155049                       # Total snoops (Count)
system.l2bus.snoopTraffic                   134949568                       # Total snoop traffic (Byte)
system.l2bus.snoopFanout::samples             4296866                       # Request fanout histogram (Count)
system.l2bus.snoopFanout::mean               0.000329                       # Request fanout histogram (Count)
system.l2bus.snoopFanout::stdev              0.018137                       # Request fanout histogram (Count)
system.l2bus.snoopFanout::underflows                0      0.00%      0.00% # Request fanout histogram (Count)
system.l2bus.snoopFanout::0                   4295452     99.97%     99.97% # Request fanout histogram (Count)
system.l2bus.snoopFanout::1                      1414      0.03%    100.00% # Request fanout histogram (Count)
system.l2bus.snoopFanout::2                         0      0.00%    100.00% # Request fanout histogram (Count)
system.l2bus.snoopFanout::overflows                 0      0.00%    100.00% # Request fanout histogram (Count)
system.l2bus.snoopFanout::min_value                 0                       # Request fanout histogram (Count)
system.l2bus.snoopFanout::max_value                 1                       # Request fanout histogram (Count)
system.l2bus.snoopFanout::total               4296866                       # Request fanout histogram (Count)
system.l2bus.power_state.pwrStateResidencyTicks::UNDEFINED 982931032000                       # Cumulative time (in ticks) in various power states (Tick)
system.l2bus.reqLayer0.occupancy           8559456000                       # Layer occupancy (ticks) (Tick)
system.l2bus.reqLayer0.utilization                0.0                       # Layer utilization (Ratio)
system.l2bus.respLayer0.occupancy             2436000                       # Layer occupancy (ticks) (Tick)
system.l2bus.respLayer0.utilization               0.0                       # Layer utilization (Ratio)
system.l2bus.respLayer1.occupancy          6423015000                       # Layer occupancy (ticks) (Tick)
system.l2bus.respLayer1.utilization               0.0                       # Layer utilization (Ratio)
system.l2bus.snoop_filter.totRequests         4282638                       # Total number of requests made to the snoop filter. (Count)
system.l2bus.snoop_filter.hitSingleRequests      2140821                       # Number of requests hitting in the snoop filter with a single holder of the requested data. (Count)
system.l2bus.snoop_filter.hitMultiRequests            4                       # Number of requests hitting in the snoop filter with multiple (>1) holders of the requested data. (Count)
system.l2bus.snoop_filter.totSnoops              1410                       # Total number of snoops made to the snoop filter. (Count)
system.l2bus.snoop_filter.hitSingleSnoops         1410                       # Number of snoops hitting in the snoop filter with a single holder of the requested data. (Count)
system.l2bus.snoop_filter.hitMultiSnoops            0                       # Number of snoops hitting in the snoop filter with multiple (>1) holders of the requested data. (Count)
system.l2cache.demandHits::cpu.inst                18                       # number of demand (read+write) hits (Count)
system.l2cache.demandHits::cpu.data             27998                       # number of demand (read+write) hits (Count)
system.l2cache.demandHits::total                28016                       # number of demand (read+write) hits (Count)
system.l2cache.overallHits::cpu.inst               18                       # number of overall hits (Count)
system.l2cache.overallHits::cpu.data            27998                       # number of overall hits (Count)
system.l2cache.overallHits::total               28016                       # number of overall hits (Count)
system.l2cache.demandMisses::cpu.inst             794                       # number of demand (read+write) misses (Count)
system.l2cache.demandMisses::cpu.data         2113007                       # number of demand (read+write) misses (Count)
system.l2cache.demandMisses::total            2113801                       # number of demand (read+write) misses (Count)
system.l2cache.overallMisses::cpu.inst            794                       # number of overall misses (Count)
system.l2cache.overallMisses::cpu.data        2113007                       # number of overall misses (Count)
system.l2cache.overallMisses::total           2113801                       # number of overall misses (Count)
system.l2cache.demandMissLatency::cpu.inst     97238000                       # number of demand (read+write) miss ticks (Tick)
system.l2cache.demandMissLatency::cpu.data 262346673000                       # number of demand (read+write) miss ticks (Tick)
system.l2cache.demandMissLatency::total  262443911000                       # number of demand (read+write) miss ticks (Tick)
system.l2cache.overallMissLatency::cpu.inst     97238000                       # number of overall miss ticks (Tick)
system.l2cache.overallMissLatency::cpu.data 262346673000                       # number of overall miss ticks (Tick)
system.l2cache.overallMissLatency::total 262443911000                       # number of overall miss ticks (Tick)
system.l2cache.demandAccesses::cpu.inst           812                       # number of demand (read+write) accesses (Count)
system.l2cache.demandAccesses::cpu.data       2141005                       # number of demand (read+write) accesses (Count)
system.l2cache.demandAccesses::total          2141817                       # number of demand (read+write) accesses (Count)
system.l2cache.overallAccesses::cpu.inst          812                       # number of overall (read+write) accesses (Count)
system.l2cache.overallAccesses::cpu.data      2141005                       # number of overall (read+write) accesses (Count)
system.l2cache.overallAccesses::total         2141817                       # number of overall (read+write) accesses (Count)
system.l2cache.demandMissRate::cpu.inst      0.977833                       # miss rate for demand accesses (Ratio)
system.l2cache.demandMissRate::cpu.data      0.986923                       # miss rate for demand accesses (Ratio)
system.l2cache.demandMissRate::total         0.986920                       # miss rate for demand accesses (Ratio)
system.l2cache.overallMissRate::cpu.inst     0.977833                       # miss rate for overall accesses (Ratio)
system.l2cache.overallMissRate::cpu.data     0.986923                       # miss rate for overall accesses (Ratio)
system.l2cache.overallMissRate::total        0.986920                       # miss rate for overall accesses (Ratio)
system.l2cache.demandAvgMissLatency::cpu.inst 122465.994962                       # average overall miss latency in ticks ((Tick/Count))
system.l2cache.demandAvgMissLatency::cpu.data 124157.976287                       # average overall miss latency in ticks ((Tick/Count))
system.l2cache.demandAvgMissLatency::total 124157.340734                       # average overall miss latency in ticks ((Tick/Count))
system.l2cache.overallAvgMissLatency::cpu.inst 122465.994962                       # average overall miss latency ((Tick/Count))
system.l2cache.overallAvgMissLatency::cpu.data 124157.976287                       # average overall miss latency ((Tick/Count))
system.l2cache.overallAvgMissLatency::total 124157.340734                       # average overall miss latency ((Tick/Count))
system.l2cache.blockedCycles::no_mshrs              0                       # number of cycles access was blocked (Cycle)
system.l2cache.blockedCycles::no_targets            0                       # number of cycles access was blocked (Cycle)
system.l2cache.blockedCauses::no_mshrs              0                       # number of times access was blocked (Count)
system.l2cache.blockedCauses::no_targets            0                       # number of times access was blocked (Count)
system.l2cache.avgBlocked::no_mshrs               nan                       # average number of cycles each access was blocked ((Cycle/Count))
system.l2cache.avgBlocked::no_targets             nan                       # average number of cycles each access was blocked ((Cycle/Count))
system.l2cache.writebacks::writebacks         2107081                       # number of writebacks (Count)
system.l2cache.writebacks::total              2107081                       # number of writebacks (Count)
system.l2cache.demandMshrMisses::cpu.inst          794                       # number of demand (read+write) MSHR misses (Count)
system.l2cache.demandMshrMisses::cpu.data      2113007                       # number of demand (read+write) MSHR misses (Count)
system.l2cache.demandMshrMisses::total        2113801                       # number of demand (read+write) MSHR misses (Count)
system.l2cache.overallMshrMisses::cpu.inst          794                       # number of overall MSHR misses (Count)
system.l2cache.overallMshrMisses::cpu.data      2113007                       # number of overall MSHR misses (Count)
system.l2cache.overallMshrMisses::total       2113801                       # number of overall MSHR misses (Count)
system.l2cache.demandMshrMissLatency::cpu.inst     81358000                       # number of demand (read+write) MSHR miss ticks (Tick)
system.l2cache.demandMshrMissLatency::cpu.data 220086533000                       # number of demand (read+write) MSHR miss ticks (Tick)
system.l2cache.demandMshrMissLatency::total 220167891000                       # number of demand (read+write) MSHR miss ticks (Tick)
system.l2cache.overallMshrMissLatency::cpu.inst     81358000                       # number of overall MSHR miss ticks (Tick)
system.l2cache.overallMshrMissLatency::cpu.data 220086533000                       # number of overall MSHR miss ticks (Tick)
system.l2cache.overallMshrMissLatency::total 220167891000                       # number of overall MSHR miss ticks (Tick)
system.l2cache.demandMshrMissRate::cpu.inst     0.977833                       # mshr miss ratio for demand accesses (Ratio)
system.l2cache.demandMshrMissRate::cpu.data     0.986923                       # mshr miss ratio for demand accesses (Ratio)
system.l2cache.demandMshrMissRate::total     0.986920                       # mshr miss ratio for demand accesses (Ratio)
system.l2cache.overallMshrMissRate::cpu.inst     0.977833                       # mshr miss ratio for overall accesses (Ratio)
system.l2cache.overallMshrMissRate::cpu.data     0.986923                       # mshr miss ratio for overall accesses (Ratio)
system.l2cache.overallMshrMissRate::total     0.986920                       # mshr miss ratio for overall accesses (Ratio)
system.l2cache.demandAvgMshrMissLatency::cpu.inst 102465.994962                       # average overall mshr miss latency ((Tick/Count))
system.l2cache.demandAvgMshrMissLatency::cpu.data 104157.976287                       # average overall mshr miss latency ((Tick/Count))
system.l2cache.demandAvgMshrMissLatency::total 104157.340734                       # average overall mshr miss latency ((Tick/Count))
system.l2cache.overallAvgMshrMissLatency::cpu.inst 102465.994962                       # average overall mshr miss latency ((Tick/Count))
system.l2cache.overallAvgMshrMissLatency::cpu.data 104157.976287                       # average overall mshr miss latency ((Tick/Count))
system.l2cache.overallAvgMshrMissLatency::total 104157.340734                       # average overall mshr miss latency ((Tick/Count))
system.l2cache.replacements                   2110010                       # number of replacements (Count)
system.l2cache.CleanEvict.mshrMisses::writebacks           54                       # number of CleanEvict MSHR misses (Count)
system.l2cache.CleanEvict.mshrMisses::total           54                       # number of CleanEvict MSHR misses (Count)
system.l2cache.CleanEvict.mshrMissRate::writebacks          inf                       # mshr miss rate for CleanEvict accesses (Ratio)
system.l2cache.CleanEvict.mshrMissRate::total          inf                       # mshr miss rate for CleanEvict accesses (Ratio)
system.l2cache.ReadExReq.hits::cpu.data         27264                       # number of ReadExReq hits (Count)
system.l2cache.ReadExReq.hits::total            27264                       # number of ReadExReq hits (Count)
system.l2cache.ReadExReq.misses::cpu.data      2110999                       # number of ReadExReq misses (Count)
system.l2cache.ReadExReq.misses::total        2110999                       # number of ReadExReq misses (Count)
system.l2cache.ReadExReq.missLatency::cpu.data 262100580000                       # number of ReadExReq miss ticks (Tick)
system.l2cache.ReadExReq.missLatency::total 262100580000                       # number of ReadExReq miss ticks (Tick)
system.l2cache.ReadExReq.accesses::cpu.data      2138263                       # number of ReadExReq accesses(hits+misses) (Count)
system.l2cache.ReadExReq.accesses::total      2138263                       # number of ReadExReq accesses(hits+misses) (Count)
system.l2cache.ReadExReq.missRate::cpu.data     0.987249                       # miss rate for ReadExReq accesses (Ratio)
system.l2cache.ReadExReq.missRate::total     0.987249                       # miss rate for ReadExReq accesses (Ratio)
system.l2cache.ReadExReq.avgMissLatency::cpu.data 124159.499839                       # average ReadExReq miss latency ((Tick/Count))
system.l2cache.ReadExReq.avgMissLatency::total 124159.499839                       # average ReadExReq miss latency ((Tick/Count))
system.l2cache.ReadExReq.mshrMisses::cpu.data      2110999                       # number of ReadExReq MSHR misses (Count)
system.l2cache.ReadExReq.mshrMisses::total      2110999                       # number of ReadExReq MSHR misses (Count)
system.l2cache.ReadExReq.mshrMissLatency::cpu.data 219880600000                       # number of ReadExReq MSHR miss ticks (Tick)
system.l2cache.ReadExReq.mshrMissLatency::total 219880600000                       # number of ReadExReq MSHR miss ticks (Tick)
system.l2cache.ReadExReq.mshrMissRate::cpu.data     0.987249                       # mshr miss rate for ReadExReq accesses (Ratio)
system.l2cache.ReadExReq.mshrMissRate::total     0.987249                       # mshr miss rate for ReadExReq accesses (Ratio)
system.l2cache.ReadExReq.avgMshrMissLatency::cpu.data 104159.499839                       # average ReadExReq mshr miss latency ((Tick/Count))
system.l2cache.ReadExReq.avgMshrMissLatency::total 104159.499839                       # average ReadExReq mshr miss latency ((Tick/Count))
system.l2cache.ReadSharedReq.hits::cpu.inst           18                       # number of ReadSharedReq hits (Count)
system.l2cache.ReadSharedReq.hits::cpu.data          734                       # number of ReadSharedReq hits (Count)
system.l2cache.ReadSharedReq.hits::total          752                       # number of ReadSharedReq hits (Count)
system.l2cache.ReadSharedReq.misses::cpu.inst          794                       # number of ReadSharedReq misses (Count)
system.l2cache.ReadSharedReq.misses::cpu.data         2008                       # number of ReadSharedReq misses (Count)
system.l2cache.ReadSharedReq.misses::total         2802                       # number of ReadSharedReq misses (Count)
system.l2cache.ReadSharedReq.missLatency::cpu.inst     97238000                       # number of ReadSharedReq miss ticks (Tick)
system.l2cache.ReadSharedReq.missLatency::cpu.data    246093000                       # number of ReadSharedReq miss ticks (Tick)
system.l2cache.ReadSharedReq.missLatency::total    343331000                       # number of ReadSharedReq miss ticks (Tick)
system.l2cache.ReadSharedReq.accesses::cpu.inst          812                       # number of ReadSharedReq accesses(hits+misses) (Count)
system.l2cache.ReadSharedReq.accesses::cpu.data         2742                       # number of ReadSharedReq accesses(hits+misses) (Count)
system.l2cache.ReadSharedReq.accesses::total         3554                       # number of ReadSharedReq accesses(hits+misses) (Count)
system.l2cache.ReadSharedReq.missRate::cpu.inst     0.977833                       # miss rate for ReadSharedReq accesses (Ratio)
system.l2cache.ReadSharedReq.missRate::cpu.data     0.732312                       # miss rate for ReadSharedReq accesses (Ratio)
system.l2cache.ReadSharedReq.missRate::total     0.788407                       # miss rate for ReadSharedReq accesses (Ratio)
system.l2cache.ReadSharedReq.avgMissLatency::cpu.inst 122465.994962                       # average ReadSharedReq miss latency ((Tick/Count))
system.l2cache.ReadSharedReq.avgMissLatency::cpu.data 122556.274900                       # average ReadSharedReq miss latency ((Tick/Count))
system.l2cache.ReadSharedReq.avgMissLatency::total 122530.692363                       # average ReadSharedReq miss latency ((Tick/Count))
system.l2cache.ReadSharedReq.mshrMisses::cpu.inst          794                       # number of ReadSharedReq MSHR misses (Count)
system.l2cache.ReadSharedReq.mshrMisses::cpu.data         2008                       # number of ReadSharedReq MSHR misses (Count)
system.l2cache.ReadSharedReq.mshrMisses::total         2802                       # number of ReadSharedReq MSHR misses (Count)
system.l2cache.ReadSharedReq.mshrMissLatency::cpu.inst     81358000                       # number of ReadSharedReq MSHR miss ticks (Tick)
system.l2cache.ReadSharedReq.mshrMissLatency::cpu.data    205933000                       # number of ReadSharedReq MSHR miss ticks (Tick)
system.l2cache.ReadSharedReq.mshrMissLatency::total    287291000                       # number of ReadSharedReq MSHR miss ticks (Tick)
system.l2cache.ReadSharedReq.mshrMissRate::cpu.inst     0.977833                       # mshr miss rate for ReadSharedReq accesses (Ratio)
system.l2cache.ReadSharedReq.mshrMissRate::cpu.data     0.732312                       # mshr miss rate for ReadSharedReq accesses (Ratio)
system.l2cache.ReadSharedReq.mshrMissRate::total     0.788407                       # mshr miss rate for ReadSharedReq accesses (Ratio)
system.l2cache.ReadSharedReq.avgMshrMissLatency::cpu.inst 102465.994962                       # average ReadSharedReq mshr miss latency ((Tick/Count))
system.l2cache.ReadSharedReq.avgMshrMissLatency::cpu.data 102556.274900                       # average ReadSharedReq mshr miss latency ((Tick/Count))
system.l2cache.ReadSharedReq.avgMshrMissLatency::total 102530.692363                       # average ReadSharedReq mshr miss latency ((Tick/Count))
system.l2cache.WritebackDirty.hits::writebacks      2138409                       # number of WritebackDirty hits (Count)
system.l2cache.WritebackDirty.hits::total      2138409                       # number of WritebackDirty hits (Count)
system.l2cache.WritebackDirty.accesses::writebacks      2138409                       # number of WritebackDirty accesses(hits+misses) (Count)
system.l2cache.WritebackDirty.accesses::total      2138409                       # number of WritebackDirty accesses(hits+misses) (Count)
system.l2cache.power_state.pwrStateResidencyTicks::UNDEFINED 982931032000                       # Cumulative time (in ticks) in various power states (Tick)
system.l2cache.tags.tagsInUse             4094.085075                       # Average ticks per tags in use ((Tick/Count))
system.l2cache.tags.totalRefs                 4282580                       # Total number of references to valid blocks. (Count)
system.l2cache.tags.sampledRefs               2114106                       # Sample count of references to valid blocks. (Count)
system.l2cache.tags.avgRefs                  2.025717                       # Average number of references to valid blocks. ((Count/Count))
system.l2cache.tags.warmupTick                 109000                       # The tick when the warmup percentage was hit. (Tick)
system.l2cache.tags.occupancies::writebacks     0.583402                       # Average occupied blocks per tick, per requestor ((Count/Tick))
system.l2cache.tags.occupancies::cpu.inst     0.962186                       # Average occupied blocks per tick, per requestor ((Count/Tick))
system.l2cache.tags.occupancies::cpu.data  4092.539487                       # Average occupied blocks per tick, per requestor ((Count/Tick))
system.l2cache.tags.avgOccs::writebacks      0.000142                       # Average percentage of cache occupancy ((Ratio/Tick))
system.l2cache.tags.avgOccs::cpu.inst        0.000235                       # Average percentage of cache occupancy ((Ratio/Tick))
system.l2cache.tags.avgOccs::cpu.data        0.999155                       # Average percentage of cache occupancy ((Ratio/Tick))
system.l2cache.tags.avgOccs::total           0.999532                       # Average percentage of cache occupancy ((Ratio/Tick))
system.l2cache.tags.occupanciesTaskId::1024         4096                       # Occupied blocks per task id (Count)
system.l2cache.tags.ageTaskId_1024::0              68                       # Occupied blocks per task id, per block age (Count)
system.l2cache.tags.ageTaskId_1024::1             251                       # Occupied blocks per task id, per block age (Count)
system.l2cache.tags.ageTaskId_1024::2            1897                       # Occupied blocks per task id, per block age (Count)
system.l2cache.tags.ageTaskId_1024::3            1880                       # Occupied blocks per task id, per block age (Count)
system.l2cache.tags.ratioOccsTaskId::1024            1                       # Ratio of occupied blocks and all blocks, per task id (Ratio)
system.l2cache.tags.tagAccesses              36375178                       # Number of tag accesses (Count)
system.l2cache.tags.dataAccesses             36375178                       # Number of data accesses (Count)
system.l2cache.tags.power_state.pwrStateResidencyTicks::UNDEFINED 982931032000                       # Cumulative time (in ticks) in various power states (Tick)
system.l3bus.transDist::ReadResp                 2802                       # Transaction distribution (Count)
system.l3bus.transDist::WritebackDirty        4110537                       # Transaction distribution (Count)
system.l3bus.transDist::CleanEvict              47842                       # Transaction distribution (Count)
system.l3bus.transDist::ReadExReq             2110999                       # Transaction distribution (Count)
system.l3bus.transDist::ReadExResp            2110999                       # Transaction distribution (Count)
system.l3bus.transDist::ReadSharedReq            2802                       # Transaction distribution (Count)
system.l3bus.pktCount_system.l2cache.mem_side_port::system.l3cache.cpu_side_port      6336865                       # Packet count per connected requestor and responder (Count)
system.l3bus.pktSize_system.l2cache.mem_side_port::system.l3cache.cpu_side_port    270136448                       # Cumulative packet size per connected requestor and responder (Byte)
system.l3bus.snoops                           2049116                       # Total snoops (Count)
system.l3bus.snoopTraffic                   128221184                       # Total snoop traffic (Byte)
system.l3bus.snoopFanout::samples             4162917                       # Request fanout histogram (Count)
system.l3bus.snoopFanout::mean               0.010819                       # Request fanout histogram (Count)
system.l3bus.snoopFanout::stdev              0.103451                       # Request fanout histogram (Count)
system.l3bus.snoopFanout::underflows                0      0.00%      0.00% # Request fanout histogram (Count)
system.l3bus.snoopFanout::0                   4117878     98.92%     98.92% # Request fanout histogram (Count)
system.l3bus.snoopFanout::1                     45039      1.08%    100.00% # Request fanout histogram (Count)
system.l3bus.snoopFanout::overflows                 0      0.00%    100.00% # Request fanout histogram (Count)
system.l3bus.snoopFanout::min_value                 0                       # Request fanout histogram (Count)
system.l3bus.snoopFanout::max_value                 1                       # Request fanout histogram (Count)
system.l3bus.snoopFanout::total               4162917                       # Request fanout histogram (Count)
system.l3bus.power_state.pwrStateResidencyTicks::UNDEFINED 982931032000                       # Cumulative time (in ticks) in various power states (Tick)
system.l3bus.reqLayer0.occupancy           8437226000                       # Layer occupancy (ticks) (Tick)
system.l3bus.reqLayer0.utilization                0.0                       # Layer utilization (Ratio)
system.l3bus.respLayer0.occupancy          6341403000                       # Layer occupancy (ticks) (Tick)
system.l3bus.respLayer0.utilization               0.0                       # Layer utilization (Ratio)
system.l3bus.snoop_filter.totRequests         4223064                       # Total number of requests made to the snoop filter. (Count)
system.l3bus.snoop_filter.hitSingleRequests      2109264                       # Number of requests hitting in the snoop filter with a single holder of the requested data. (Count)
system.l3bus.snoop_filter.hitMultiRequests            0                       # Number of requests hitting in the snoop filter with multiple (>1) holders of the requested data. (Count)
system.l3bus.snoop_filter.totSnoops             45039                       # Total number of snoops made to the snoop filter. (Count)
system.l3bus.snoop_filter.hitSingleSnoops        45039                       # Number of snoops hitting in the snoop filter with a single holder of the requested data. (Count)
system.l3bus.snoop_filter.hitMultiSnoops            0                       # Number of snoops hitting in the snoop filter with multiple (>1) holders of the requested data. (Count)
system.l3cache.demandHits::cpu.data             92832                       # number of demand (read+write) hits (Count)
system.l3cache.demandHits::total                92832                       # number of demand (read+write) hits (Count)
system.l3cache.overallHits::cpu.data            92832                       # number of overall hits (Count)
system.l3cache.overallHits::total               92832                       # number of overall hits (Count)
system.l3cache.demandMisses::cpu.inst             794                       # number of demand (read+write) misses (Count)
system.l3cache.demandMisses::cpu.data         2020175                       # number of demand (read+write) misses (Count)
system.l3cache.demandMisses::total            2020969                       # number of demand (read+write) misses (Count)
system.l3cache.overallMisses::cpu.inst            794                       # number of overall misses (Count)
system.l3cache.overallMisses::cpu.data        2020175                       # number of overall misses (Count)
system.l3cache.overallMisses::total           2020969                       # number of overall misses (Count)
system.l3cache.demandMissLatency::cpu.inst     78182000                       # number of demand (read+write) miss ticks (Tick)
system.l3cache.demandMissLatency::cpu.data 209685032000                       # number of demand (read+write) miss ticks (Tick)
system.l3cache.demandMissLatency::total  209763214000                       # number of demand (read+write) miss ticks (Tick)
system.l3cache.overallMissLatency::cpu.inst     78182000                       # number of overall miss ticks (Tick)
system.l3cache.overallMissLatency::cpu.data 209685032000                       # number of overall miss ticks (Tick)
system.l3cache.overallMissLatency::total 209763214000                       # number of overall miss ticks (Tick)
system.l3cache.demandAccesses::cpu.inst           794                       # number of demand (read+write) accesses (Count)
system.l3cache.demandAccesses::cpu.data       2113007                       # number of demand (read+write) accesses (Count)
system.l3cache.demandAccesses::total          2113801                       # number of demand (read+write) accesses (Count)
system.l3cache.overallAccesses::cpu.inst          794                       # number of overall (read+write) accesses (Count)
system.l3cache.overallAccesses::cpu.data      2113007                       # number of overall (read+write) accesses (Count)
system.l3cache.overallAccesses::total         2113801                       # number of overall (read+write) accesses (Count)
system.l3cache.demandMissRate::cpu.inst             1                       # miss rate for demand accesses (Ratio)
system.l3cache.demandMissRate::cpu.data      0.956066                       # miss rate for demand accesses (Ratio)
system.l3cache.demandMissRate::total         0.956083                       # miss rate for demand accesses (Ratio)
system.l3cache.overallMissRate::cpu.inst            1                       # miss rate for overall accesses (Ratio)
system.l3cache.overallMissRate::cpu.data     0.956066                       # miss rate for overall accesses (Ratio)
system.l3cache.overallMissRate::total        0.956083                       # miss rate for overall accesses (Ratio)
system.l3cache.demandAvgMissLatency::cpu.inst 98465.994962                       # average overall miss latency in ticks ((Tick/Count))
system.l3cache.demandAvgMissLatency::cpu.data 103795.479105                       # average overall miss latency in ticks ((Tick/Count))
system.l3cache.demandAvgMissLatency::total 103793.385252                       # average overall miss latency in ticks ((Tick/Count))
system.l3cache.overallAvgMissLatency::cpu.inst 98465.994962                       # average overall miss latency ((Tick/Count))
system.l3cache.overallAvgMissLatency::cpu.data 103795.479105                       # average overall miss latency ((Tick/Count))
system.l3cache.overallAvgMissLatency::total 103793.385252                       # average overall miss latency ((Tick/Count))
system.l3cache.blockedCycles::no_mshrs              0                       # number of cycles access was blocked (Cycle)
system.l3cache.blockedCycles::no_targets            0                       # number of cycles access was blocked (Cycle)
system.l3cache.blockedCauses::no_mshrs              0                       # number of times access was blocked (Count)
system.l3cache.blockedCauses::no_targets            0                       # number of times access was blocked (Count)
system.l3cache.avgBlocked::no_mshrs               nan                       # average number of cycles each access was blocked ((Cycle/Count))
system.l3cache.avgBlocked::no_targets             nan                       # average number of cycles each access was blocked ((Cycle/Count))
system.l3cache.writebacks::writebacks         2003456                       # number of writebacks (Count)
system.l3cache.writebacks::total              2003456                       # number of writebacks (Count)
system.l3cache.demandMshrMisses::cpu.inst          794                       # number of demand (read+write) MSHR misses (Count)
system.l3cache.demandMshrMisses::cpu.data      2020175                       # number of demand (read+write) MSHR misses (Count)
system.l3cache.demandMshrMisses::total        2020969                       # number of demand (read+write) MSHR misses (Count)
system.l3cache.overallMshrMisses::cpu.inst          794                       # number of overall MSHR misses (Count)
system.l3cache.overallMshrMisses::cpu.data      2020175                       # number of overall MSHR misses (Count)
system.l3cache.overallMshrMisses::total       2020969                       # number of overall MSHR misses (Count)
system.l3cache.demandMshrMissLatency::cpu.inst     62302000                       # number of demand (read+write) MSHR miss ticks (Tick)
system.l3cache.demandMshrMissLatency::cpu.data 169281532000                       # number of demand (read+write) MSHR miss ticks (Tick)
system.l3cache.demandMshrMissLatency::total 169343834000                       # number of demand (read+write) MSHR miss ticks (Tick)
system.l3cache.overallMshrMissLatency::cpu.inst     62302000                       # number of overall MSHR miss ticks (Tick)
system.l3cache.overallMshrMissLatency::cpu.data 169281532000                       # number of overall MSHR miss ticks (Tick)
system.l3cache.overallMshrMissLatency::total 169343834000                       # number of overall MSHR miss ticks (Tick)
system.l3cache.demandMshrMissRate::cpu.inst            1                       # mshr miss ratio for demand accesses (Ratio)
system.l3cache.demandMshrMissRate::cpu.data     0.956066                       # mshr miss ratio for demand accesses (Ratio)
system.l3cache.demandMshrMissRate::total     0.956083                       # mshr miss ratio for demand accesses (Ratio)
system.l3cache.overallMshrMissRate::cpu.inst            1                       # mshr miss ratio for overall accesses (Ratio)
system.l3cache.overallMshrMissRate::cpu.data     0.956066                       # mshr miss ratio for overall accesses (Ratio)
system.l3cache.overallMshrMissRate::total     0.956083                       # mshr miss ratio for overall accesses (Ratio)
system.l3cache.demandAvgMshrMissLatency::cpu.inst 78465.994962                       # average overall mshr miss latency ((Tick/Count))
system.l3cache.demandAvgMshrMissLatency::cpu.data 83795.479105                       # average overall mshr miss latency ((Tick/Count))
system.l3cache.demandAvgMshrMissLatency::total 83793.385252                       # average overall mshr miss latency ((Tick/Count))
system.l3cache.overallAvgMshrMissLatency::cpu.inst 78465.994962                       # average overall mshr miss latency ((Tick/Count))
system.l3cache.overallAvgMshrMissLatency::cpu.data 83795.479105                       # average overall mshr miss latency ((Tick/Count))
system.l3cache.overallAvgMshrMissLatency::total 83793.385252                       # average overall mshr miss latency ((Tick/Count))
system.l3cache.replacements                   2049116                       # number of replacements (Count)
system.l3cache.CleanEvict.mshrMisses::writebacks           53                       # number of CleanEvict MSHR misses (Count)
system.l3cache.CleanEvict.mshrMisses::total           53                       # number of CleanEvict MSHR misses (Count)
system.l3cache.CleanEvict.mshrMissRate::writebacks          inf                       # mshr miss rate for CleanEvict accesses (Ratio)
system.l3cache.CleanEvict.mshrMissRate::total          inf                       # mshr miss rate for CleanEvict accesses (Ratio)
system.l3cache.ReadExReq.hits::cpu.data         92830                       # number of ReadExReq hits (Count)
system.l3cache.ReadExReq.hits::total            92830                       # number of ReadExReq hits (Count)
system.l3cache.ReadExReq.misses::cpu.data      2018169                       # number of ReadExReq misses (Count)
system.l3cache.ReadExReq.misses::total        2018169                       # number of ReadExReq misses (Count)
system.l3cache.ReadExReq.missLatency::cpu.data 209487174000                       # number of ReadExReq miss ticks (Tick)
system.l3cache.ReadExReq.missLatency::total 209487174000                       # number of ReadExReq miss ticks (Tick)
system.l3cache.ReadExReq.accesses::cpu.data      2110999                       # number of ReadExReq accesses(hits+misses) (Count)
system.l3cache.ReadExReq.accesses::total      2110999                       # number of ReadExReq accesses(hits+misses) (Count)
system.l3cache.ReadExReq.missRate::cpu.data     0.956026                       # miss rate for ReadExReq accesses (Ratio)
system.l3cache.ReadExReq.missRate::total     0.956026                       # miss rate for ReadExReq accesses (Ratio)
system.l3cache.ReadExReq.avgMissLatency::cpu.data 103800.610355                       # average ReadExReq miss latency ((Tick/Count))
system.l3cache.ReadExReq.avgMissLatency::total 103800.610355                       # average ReadExReq miss latency ((Tick/Count))
system.l3cache.ReadExReq.mshrMisses::cpu.data      2018169                       # number of ReadExReq MSHR misses (Count)
system.l3cache.ReadExReq.mshrMisses::total      2018169                       # number of ReadExReq MSHR misses (Count)
[...]
system.mem_ctrl.dram.bytesWritten::total    128221184                       # Number of bytes written to this memory (Byte)
system.mem_ctrl.dram.numReads::cpu.inst           794                       # Number of read requests responded to by this memory (Count)
system.mem_ctrl.dram.numReads::cpu.data       2020175                       # Number of read requests responded to by this memory (Count)
system.mem_ctrl.dram.numReads::total          2020969                       # Number of read requests responded to by this memory (Count)
system.mem_ctrl.dram.numWrites::writebacks      2003456                       # Number of write requests responded to by this memory (Count)
system.mem_ctrl.dram.numWrites::total         2003456                       # Number of write requests responded to by this memory (Count)
system.mem_ctrl.dram.bwRead::cpu.inst           51698                       # Total read bandwidth from this memory ((Byte/Second))
system.mem_ctrl.dram.bwRead::cpu.data       131536390                       # Total read bandwidth from this memory ((Byte/Second))
system.mem_ctrl.dram.bwRead::total          131588089                       # Total read bandwidth from this memory ((Byte/Second))
system.mem_ctrl.dram.bwInstRead::cpu.inst        51698                       # Instruction read bandwidth from this memory ((Byte/Second))
system.mem_ctrl.dram.bwInstRead::total          51698                       # Instruction read bandwidth from this memory ((Byte/Second))
system.mem_ctrl.dram.bwWrite::writebacks    130447793                       # Write bandwidth from this memory ((Byte/Second))
system.mem_ctrl.dram.bwWrite::total         130447793                       # Write bandwidth from this memory ((Byte/Second))
system.mem_ctrl.dram.bwTotal::writebacks    130447793                       # Total bandwidth to/from this memory ((Byte/Second))
system.mem_ctrl.dram.bwTotal::cpu.inst          51698                       # Total bandwidth to/from this memory ((Byte/Second))
system.mem_ctrl.dram.bwTotal::cpu.data      131536390                       # Total bandwidth to/from this memory ((Byte/Second))
system.mem_ctrl.dram.bwTotal::total         262035882                       # Total bandwidth to/from this memory ((Byte/Second))
system.mem_ctrl.dram.readBursts               2020790                       # Number of DRAM read bursts (Count)
system.mem_ctrl.dram.writeBursts              2003427                       # Number of DRAM write bursts (Count)
system.mem_ctrl.dram.perBankRdBursts::0        126748                       # Per bank write bursts (Count)
system.mem_ctrl.dram.perBankRdBursts::1        125740                       # Per bank write bursts (Count)
system.mem_ctrl.dram.perBankRdBursts::2        126099                       # Per bank write bursts (Count)
system.mem_ctrl.dram.perBankRdBursts::3        126234                       # Per bank write bursts (Count)
system.mem_ctrl.dram.perBankRdBursts::4        126502                       # Per bank write bursts (Count)
system.mem_ctrl.dram.perBankRdBursts::5        126316                       # Per bank write bursts (Count)
system.mem_ctrl.dram.perBankRdBursts::6        126253                       # Per bank write bursts (Count)
system.mem_ctrl.dram.perBankRdBursts::7        126290                       # Per bank write bursts (Count)
system.mem_ctrl.dram.perBankRdBursts::8        126008                       # Per bank write bursts (Count)
system.mem_ctrl.dram.perBankRdBursts::9        126739                       # Per bank write bursts (Count)
system.mem_ctrl.dram.perBankRdBursts::10       125290                       # Per bank write bursts (Count)
system.mem_ctrl.dram.perBankRdBursts::11       125953                       # Per bank write bursts (Count)
system.mem_ctrl.dram.perBankRdBursts::12       125865                       # Per bank write bursts (Count)
system.mem_ctrl.dram.perBankRdBursts::13       127378                       # Per bank write bursts (Count)
system.mem_ctrl.dram.perBankRdBursts::14       127002                       # Per bank write bursts (Count)
system.mem_ctrl.dram.perBankRdBursts::15       126373                       # Per bank write bursts (Count)
system.mem_ctrl.dram.perBankWrBursts::0        125696                       # Per bank write bursts (Count)
system.mem_ctrl.dram.perBankWrBursts::1        124622                       # Per bank write bursts (Count)
system.mem_ctrl.dram.perBankWrBursts::2        125055                       # Per bank write bursts (Count)
system.mem_ctrl.dram.perBankWrBursts::3        125140                       # Per bank write bursts (Count)
system.mem_ctrl.dram.perBankWrBursts::4        125381                       # Per bank write bursts (Count)
system.mem_ctrl.dram.perBankWrBursts::5        125231                       # Per bank write bursts (Count)
system.mem_ctrl.dram.perBankWrBursts::6        125120                       # Per bank write bursts (Count)
system.mem_ctrl.dram.perBankWrBursts::7        125217                       # Per bank write bursts (Count)
system.mem_ctrl.dram.perBankWrBursts::8        124954                       # Per bank write bursts (Count)
system.mem_ctrl.dram.perBankWrBursts::9        125597                       # Per bank write bursts (Count)
system.mem_ctrl.dram.perBankWrBursts::10       124200                       # Per bank write bursts (Count)
system.mem_ctrl.dram.perBankWrBursts::11       124848                       # Per bank write bursts (Count)
system.mem_ctrl.dram.perBankWrBursts::12       124846                       # Per bank write bursts (Count)
system.mem_ctrl.dram.perBankWrBursts::13       126234                       # Per bank write bursts (Count)
system.mem_ctrl.dram.perBankWrBursts::14       125927                       # Per bank write bursts (Count)
system.mem_ctrl.dram.perBankWrBursts::15       125359                       # Per bank write bursts (Count)
system.mem_ctrl.dram.totQLat              27558794500                       # Total ticks spent queuing (Tick)
system.mem_ctrl.dram.totBusLat            10103950000                       # Total ticks spent in databus transfers (Tick)
system.mem_ctrl.dram.totMemAccLat         65448607000                       # Total ticks spent from burst creation until serviced by the DRAM (Tick)
system.mem_ctrl.dram.avgQLat                 13637.63                       # Average queueing delay per DRAM burst ((Tick/Count))
system.mem_ctrl.dram.avgBusLat                5000.00                       # Average bus latency per DRAM burst ((Tick/Count))
system.mem_ctrl.dram.avgMemAccLat            32387.63                       # Average memory access latency per DRAM burst ((Tick/Count))
system.mem_ctrl.dram.readRowHits               961347                       # Number of row buffer hits during reads (Count)
system.mem_ctrl.dram.writeRowHits              295384                       # Number of row buffer hits during writes (Count)
system.mem_ctrl.dram.readRowHitRate             47.57                       # Row buffer hit rate for reads (Ratio)
system.mem_ctrl.dram.writeRowHitRate            14.74                       # Row buffer hit rate for writes (Ratio)
system.mem_ctrl.dram.bytesPerActivate::samples      2767482                       # Bytes accessed per row activation (Byte)
system.mem_ctrl.dram.bytesPerActivate::mean    93.062710                       # Bytes accessed per row activation (Byte)
system.mem_ctrl.dram.bytesPerActivate::gmean    81.597463                       # Bytes accessed per row activation (Byte)
system.mem_ctrl.dram.bytesPerActivate::stdev    90.247693                       # Bytes accessed per row activation (Byte)
system.mem_ctrl.dram.bytesPerActivate::0-127      1896106     68.51%     68.51% # Bytes accessed per row activation (Byte)
system.mem_ctrl.dram.bytesPerActivate::128-255       832956     30.10%     98.61% # Bytes accessed per row activation (Byte)
system.mem_ctrl.dram.bytesPerActivate::256-383         5098      0.18%     98.80% # Bytes accessed per row activation (Byte)
system.mem_ctrl.dram.bytesPerActivate::384-511         3943      0.14%     98.94% # Bytes accessed per row activation (Byte)
system.mem_ctrl.dram.bytesPerActivate::512-639         3766      0.14%     99.07% # Bytes accessed per row activation (Byte)
system.mem_ctrl.dram.bytesPerActivate::640-767         3607      0.13%     99.20% # Bytes accessed per row activation (Byte)
system.mem_ctrl.dram.bytesPerActivate::768-895         3466      0.13%     99.33% # Bytes accessed per row activation (Byte)
system.mem_ctrl.dram.bytesPerActivate::896-1023         3550      0.13%     99.46% # Bytes accessed per row activation (Byte)
system.mem_ctrl.dram.bytesPerActivate::1024-1151        14990      0.54%    100.00% # Bytes accessed per row activation (Byte)
system.mem_ctrl.dram.bytesPerActivate::total      2767482                       # Bytes accessed per row activation (Byte)
system.mem_ctrl.dram.bytesRead              129330560                       # Total bytes read (Byte)
system.mem_ctrl.dram.bytesWritten           128219328                       # Total bytes written (Byte)
system.mem_ctrl.dram.avgRdBW               131.576434                       # Average DRAM read bandwidth in MiBytes/s ((Byte/Second))
system.mem_ctrl.dram.avgWrBW               130.445905                       # Average DRAM write bandwidth in MiBytes/s ((Byte/Second))
system.mem_ctrl.dram.peakBW                  12800.00                       # Theoretical peak bandwidth in MiByte/s ((Byte/Second))
system.mem_ctrl.dram.busUtil                     2.05                       # Data bus utilization in percentage (Ratio)
system.mem_ctrl.dram.busUtilRead                 1.03                       # Data bus utilization in percentage for reads (Ratio)
system.mem_ctrl.dram.busUtilWrite                1.02                       # Data bus utilization in percentage for writes (Ratio)
system.mem_ctrl.dram.pageHitRate                31.23                       # Row buffer hit rate, read and write combined (Ratio)
system.mem_ctrl.dram.power_state.pwrStateResidencyTicks::UNDEFINED 982931032000                       # Cumulative time (in ticks) in various power states (Tick)
system.mem_ctrl.dram.rank0.actEnergy       9879532320                       # Energy for activate commands per rank (pJ) (Joule)
system.mem_ctrl.dram.rank0.preEnergy       5251088370                       # Energy for precharge commands per rank (pJ) (Joule)
system.mem_ctrl.dram.rank0.readEnergy      7212699480                       # Energy for read commands per rank (pJ) (Joule)
system.mem_ctrl.dram.rank0.writeEnergy     5227631640                       # Energy for write commands per rank (pJ) (Joule)
system.mem_ctrl.dram.rank0.refreshEnergy 77591538960.000015                       # Energy for refresh commands per rank (pJ) (Joule)
system.mem_ctrl.dram.rank0.actBackEnergy 378878708160                       # Energy for active background per rank (pJ) (Joule)
system.mem_ctrl.dram.rank0.preBackEnergy  58389762240                       # Energy for precharge background per rank (pJ) (Joule)
system.mem_ctrl.dram.rank0.actPowerDownEnergy            0                       # Energy for active power-down per rank (pJ) (Joule)
system.mem_ctrl.dram.rank0.prePowerDownEnergy            0                       # Energy for precharge power-down per rank (pJ) (Joule)
system.mem_ctrl.dram.rank0.selfRefreshEnergy            0                       # Energy for self refresh per rank (pJ) (Joule)
system.mem_ctrl.dram.rank0.totalEnergy   542430961170                       # Total energy per rank (pJ) (Joule)
system.mem_ctrl.dram.rank0.averagePower    551.850479                       # Core power per rank (mW) (Watt)
system.mem_ctrl.dram.rank0.totalIdleTime            0                       # Total Idle time Per DRAM Rank (Tick)
system.mem_ctrl.dram.rank0.pwrStateTime::IDLE 148148400500                       # Time in different power states (Tick)
system.mem_ctrl.dram.rank0.pwrStateTime::REF  32822140000                       # Time in different power states (Tick)
system.mem_ctrl.dram.rank0.pwrStateTime::SREF            0                       # Time in different power states (Tick)
system.mem_ctrl.dram.rank0.pwrStateTime::PRE_PDN            0                       # Time in different power states (Tick)
system.mem_ctrl.dram.rank0.pwrStateTime::ACT 801960491500                       # Time in different power states (Tick)
system.mem_ctrl.dram.rank0.pwrStateTime::ACT_PDN            0                       # Time in different power states (Tick)
system.mem_ctrl.dram.rank1.actEnergy       9880317720                       # Energy for activate commands per rank (pJ) (Joule)
system.mem_ctrl.dram.rank1.preEnergy       5251505820                       # Energy for precharge commands per rank (pJ) (Joule)
system.mem_ctrl.dram.rank1.readEnergy      7215741120                       # Energy for read commands per rank (pJ) (Joule)
system.mem_ctrl.dram.rank1.writeEnergy     5230257300                       # Energy for write commands per rank (pJ) (Joule)
system.mem_ctrl.dram.rank1.refreshEnergy 77591538960.000015                       # Energy for refresh commands per rank (pJ) (Joule)
system.mem_ctrl.dram.rank1.actBackEnergy 378645172320                       # Energy for active background per rank (pJ) (Joule)
system.mem_ctrl.dram.rank1.preBackEnergy  58586424000                       # Energy for precharge background per rank (pJ) (Joule)
system.mem_ctrl.dram.rank1.actPowerDownEnergy            0                       # Energy for active power-down per rank (pJ) (Joule)
system.mem_ctrl.dram.rank1.prePowerDownEnergy            0                       # Energy for precharge power-down per rank (pJ) (Joule)
system.mem_ctrl.dram.rank1.selfRefreshEnergy            0                       # Energy for self refresh per rank (pJ) (Joule)
system.mem_ctrl.dram.rank1.totalEnergy   542400957240                       # Total energy per rank (pJ) (Joule)
system.mem_ctrl.dram.rank1.averagePower    551.819954                       # Core power per rank (mW) (Watt)
system.mem_ctrl.dram.rank1.totalIdleTime            0                       # Total Idle time Per DRAM Rank (Tick)
system.mem_ctrl.dram.rank1.pwrStateTime::IDLE 148663478000                       # Time in different power states (Tick)
system.mem_ctrl.dram.rank1.pwrStateTime::REF  32822140000                       # Time in different power states (Tick)
system.mem_ctrl.dram.rank1.pwrStateTime::SREF            0                       # Time in different power states (Tick)
system.mem_ctrl.dram.rank1.pwrStateTime::PRE_PDN            0                       # Time in different power states (Tick)
system.mem_ctrl.dram.rank1.pwrStateTime::ACT 801445414000                       # Time in different power states (Tick)
system.mem_ctrl.dram.rank1.pwrStateTime::ACT_PDN            0                       # Time in different power states (Tick)
system.mem_ctrl.power_state.pwrStateResidencyTicks::UNDEFINED 982931032000                       # Cumulative time (in ticks) in various power states (Tick)
system.membus.transDist::ReadResp                2800                       # Transaction distribution (Count)
system.membus.transDist::WritebackDirty       2003456                       # Transaction distribution (Count)
system.membus.transDist::CleanEvict              2179                       # Transaction distribution (Count)
system.membus.transDist::ReadExReq            2018169                       # Transaction distribution (Count)
system.membus.transDist::ReadExResp           2018169                       # Transaction distribution (Count)
system.membus.transDist::ReadSharedReq           2800                       # Transaction distribution (Count)
system.membus.pktCount_system.l3cache.mem_side_port::system.mem_ctrl.port      6047573                       # Packet count per connected requestor and responder (Count)
system.membus.pktCount_system.l3cache.mem_side_port::total      6047573                       # Packet count per connected requestor and responder (Count)
system.membus.pktCount::total                 6047573                       # Packet count per connected requestor and responder (Count)
system.membus.pktSize_system.l3cache.mem_side_port::system.mem_ctrl.port    257563200                       # Cumulative packet size per connected requestor and responder (Byte)
system.membus.pktSize_system.l3cache.mem_side_port::total    257563200                       # Cumulative packet size per connected requestor and responder (Byte)
system.membus.pktSize::total                257563200                       # Cumulative packet size per connected requestor and responder (Byte)
system.membus.snoops                                0                       # Total snoops (Count)
system.membus.snoopTraffic                          0                       # Total snoop traffic (Byte)
system.membus.snoopFanout::samples            2020969                       # Request fanout histogram (Count)
system.membus.snoopFanout::mean                     0                       # Request fanout histogram (Count)
system.membus.snoopFanout::stdev                    0                       # Request fanout histogram (Count)
system.membus.snoopFanout::underflows               0      0.00%      0.00% # Request fanout histogram (Count)
system.membus.snoopFanout::0                  2020969    100.00%    100.00% # Request fanout histogram (Count)
system.membus.snoopFanout::1                        0      0.00%    100.00% # Request fanout histogram (Count)
system.membus.snoopFanout::overflows                0      0.00%    100.00% # Request fanout histogram (Count)
system.membus.snoopFanout::min_value                0                       # Request fanout histogram (Count)
system.membus.snoopFanout::max_value                0                       # Request fanout histogram (Count)
system.membus.snoopFanout::total              2020969                       # Request fanout histogram (Count)
system.membus.power_state.pwrStateResidencyTicks::UNDEFINED 982931032000                       # Cumulative time (in ticks) in various power states (Tick)
system.membus.reqLayer2.occupancy         12040428000                       # Layer occupancy (ticks) (Tick)
system.membus.reqLayer2.utilization               0.0                       # Layer utilization (Ratio)
system.membus.respLayer0.occupancy        10932443000                       # Layer occupancy (ticks) (Tick)
system.membus.respLayer0.utilization              0.0                       # Layer utilization (Ratio)
system.membus.snoop_filter.totRequests        4026604                       # Total number of requests made to the snoop filter. (Count)
system.membus.snoop_filter.hitSingleRequests      2005636                       # Number of requests hitting in the snoop filter with a single holder of the requested data. (Count)
system.membus.snoop_filter.hitMultiRequests            0                       # Number of requests hitting in the snoop filter with multiple (>1) holders of the requested data. (Count)
system.membus.snoop_filter.totSnoops                0                       # Total number of snoops made to the snoop filter. (Count)
system.membus.snoop_filter.hitSingleSnoops            0                       # Number of snoops hitting in the snoop filter with a single holder of the requested data. (Count)
system.membus.snoop_filter.hitMultiSnoops            0                       # Number of snoops hitting in the snoop filter with multiple (>1) holders of the requested data. (Count)
system.workload.inst.arm                            0                       # number of arm instructions executed (Count)
system.workload.inst.quiesce                        0                       # number of quiesce instructions executed (Count)

---------- End Simulation Statistics   ----------
