
---------- Begin Simulation Statistics ----------
simSeconds                                   0.009094                       # Number of seconds simulated (Second)
simTicks                                   9093576000                       # Number of ticks simulated (Tick)
finalTick                                 11694835000                       # Number of ticks from beginning of simulation (restored from checkpoints and never reset) (Tick)
simFreq                                  1000000000000                       # The number of ticks per simulated second ((Tick/Second))
hostSeconds                                      2.48                       # Real time elapsed on the host (Second)
hostTickRate                               3669425179                       # The number of ticks simulated per host second (ticks/s) ((Tick/Second))
hostMemory                                     694772                       # Number of bytes of host memory used (Byte)
simInsts                                      1751935                       # Number of instructions simulated (Count)
simOps                                        2578019                       # Number of ops (including micro ops) simulated (Count)
hostInstRate                                   706896                       # Simulator instruction rate (inst/s) ((Count/Second))
hostOpRate                                    1040210                       # Simulator op (including micro ops) rate (op/s) ((Count/Second))
system.clk_domain.clock                          1000                       # Clock period in ticks (Tick)
system.clk_domain.voltage_domain.voltage            1                       # Voltage in Volts (Volt)
system.cpu.numCycles                          9093576                       # Number of cpu cycles simulated (Cycle)
system.cpu.numWorkItemsStarted                      0                       # Number of work items this cpu started (Count)
system.cpu.numWorkItemsCompleted                    0                       # Number of work items this cpu completed (Count)
system.cpu.dcache.demandHits::cpu.data         409662                       # number of demand (read+write) hits (Count)
system.cpu.dcache.demandHits::total            409662                       # number of demand (read+write) hits (Count)
system.cpu.dcache.overallHits::cpu.data        409662                       # number of overall hits (Count)
system.cpu.dcache.overallHits::total           409662                       # number of overall hits (Count)
system.cpu.dcache.demandMisses::cpu.data       122881                       # number of demand (read+write) misses (Count)
system.cpu.dcache.demandMisses::total          122881                       # number of demand (read+write) misses (Count)
system.cpu.dcache.overallMisses::cpu.data       122881                       # number of overall misses (Count)
system.cpu.dcache.overallMisses::total         122881                       # number of overall misses (Count)
system.cpu.dcache.demandMissLatency::cpu.data   7249979000                       # number of demand (read+write) miss ticks (Tick)
system.cpu.dcache.demandMissLatency::total   7249979000                       # number of demand (read+write) miss ticks (Tick)
system.cpu.dcache.overallMissLatency::cpu.data   7249979000                       # number of overall miss ticks (Tick)
system.cpu.dcache.overallMissLatency::total   7249979000                       # number of overall miss ticks (Tick)
system.cpu.dcache.demandAccesses::cpu.data       532543                       # number of demand (read+write) accesses (Count)
system.cpu.dcache.demandAccesses::total        532543                       # number of demand (read+write) accesses (Count)
system.cpu.dcache.overallAccesses::cpu.data       532543                       # number of overall (read+write) accesses (Count)
system.cpu.dcache.overallAccesses::total       532543                       # number of overall (read+write) accesses (Count)
system.cpu.dcache.demandMissRate::cpu.data     0.230744                       # miss rate for demand accesses (Ratio)
system.cpu.dcache.demandMissRate::total      0.230744                       # miss rate for demand accesses (Ratio)
system.cpu.dcache.overallMissRate::cpu.data     0.230744                       # miss rate for overall accesses (Ratio)
system.cpu.dcache.overallMissRate::total     0.230744                       # miss rate for overall accesses (Ratio)
system.cpu.dcache.demandAvgMissLatency::cpu.data        59000                       # average overall miss latency in ticks ((Tick/Count))
system.cpu.dcache.demandAvgMissLatency::total        59000                       # average overall miss latency in ticks ((Tick/Count))
system.cpu.dcache.overallAvgMissLatency::cpu.data        59000                       # average overall miss latency ((Tick/Count))
system.cpu.dcache.overallAvgMissLatency::total        59000                       # average overall miss latency ((Tick/Count))
system.cpu.dcache.blockedCycles::no_mshrs            0                       # number of cycles access was blocked (Cycle)
system.cpu.dcache.blockedCycles::no_targets            0                       # number of cycles access was blocked (Cycle)
system.cpu.dcache.blockedCauses::no_mshrs            0                       # number of times access was blocked (Count)
system.cpu.dcache.blockedCauses::no_targets            0                       # number of times access was blocked (Count)
system.cpu.dcache.avgBlocked::no_mshrs            nan                       # average number of cycles each access was blocked ((Cycle/Count))
system.cpu.dcache.avgBlocked::no_targets          nan                       # average number of cycles each access was blocked ((Cycle/Count))
system.cpu.dcache.writebacks::writebacks        40961                       # number of writebacks (Count)
system.cpu.dcache.writebacks::total             40961                       # number of writebacks (Count)
system.cpu.dcache.demandMshrMisses::cpu.data       122881                       # number of demand (read+write) MSHR misses (Count)
system.cpu.dcache.demandMshrMisses::total       122881                       # number of demand (read+write) MSHR misses (Count)
system.cpu.dcache.overallMshrMisses::cpu.data       122881                       # number of overall MSHR misses (Count)
system.cpu.dcache.overallMshrMisses::total       122881                       # number of overall MSHR misses (Count)
system.cpu.dcache.demandMshrMissLatency::cpu.data   7004217000                       # number of demand (read+write) MSHR miss ticks (Tick)
system.cpu.dcache.demandMshrMissLatency::total   7004217000                       # number of demand (read+write) MSHR miss ticks (Tick)
system.cpu.dcache.overallMshrMissLatency::cpu.data   7004217000                       # number of overall MSHR miss ticks (Tick)
system.cpu.dcache.overallMshrMissLatency::total   7004217000                       # number of overall MSHR miss ticks (Tick)
system.cpu.dcache.demandMshrMissRate::cpu.data     0.230744                       # mshr miss ratio for demand accesses (Ratio)
system.cpu.dcache.demandMshrMissRate::total     0.230744                       # mshr miss ratio for demand accesses (Ratio)
system.cpu.dcache.overallMshrMissRate::cpu.data     0.230744                       # mshr miss ratio for overall accesses (Ratio)
system.cpu.dcache.overallMshrMissRate::total     0.230744                       # mshr miss ratio for overall accesses (Ratio)
system.cpu.dcache.demandAvgMshrMissLatency::cpu.data        57000                       # average overall mshr miss latency ((Tick/Count))
system.cpu.dcache.demandAvgMshrMissLatency::total        57000                       # average overall mshr miss latency ((Tick/Count))
system.cpu.dcache.overallAvgMshrMissLatency::cpu.data        57000                       # average overall mshr miss latency ((Tick/Count))
system.cpu.dcache.overallAvgMshrMissLatency::total        57000                       # average overall mshr miss latency ((Tick/Count))
system.cpu.dcache.replacements                 122881                       # number of replacements (Count)
system.cpu.dcache.ReadReq.hits::cpu.data       368682                       # number of ReadReq hits (Count)
system.cpu.dcache.ReadReq.hits::total          368682                       # number of ReadReq hits (Count)
system.cpu.dcache.ReadReq.misses::cpu.data        81920                       # number of ReadReq misses (Count)
system.cpu.dcache.ReadReq.misses::total         81920                       # number of ReadReq misses (Count)
system.cpu.dcache.ReadReq.missLatency::cpu.data   4833280000                       # number of ReadReq miss ticks (Tick)
system.cpu.dcache.ReadReq.missLatency::total   4833280000                       # number of ReadReq miss ticks (Tick)
system.cpu.dcache.ReadReq.accesses::cpu.data       450602                       # number of ReadReq accesses(hits+misses) (Count)
system.cpu.dcache.ReadReq.accesses::total       450602                       # number of ReadReq accesses(hits+misses) (Count)
system.cpu.dcache.ReadReq.missRate::cpu.data     0.181801                       # miss rate for ReadReq accesses (Ratio)
system.cpu.dcache.ReadReq.missRate::total     0.181801                       # miss rate for ReadReq accesses (Ratio)
system.cpu.dcache.ReadReq.avgMissLatency::cpu.data        59000                       # average ReadReq miss latency ((Tick/Count))
system.cpu.dcache.ReadReq.avgMissLatency::total        59000                       # average ReadReq miss latency ((Tick/Count))
system.cpu.dcache.ReadReq.mshrMisses::cpu.data        81920                       # number of ReadReq MSHR misses (Count)
system.cpu.dcache.ReadReq.mshrMisses::total        81920                       # number of ReadReq MSHR misses (Count)
system.cpu.dcache.ReadReq.mshrMissLatency::cpu.data   4669440000                       # number of ReadReq MSHR miss ticks (Tick)
system.cpu.dcache.ReadReq.mshrMissLatency::total   4669440000                       # number of ReadReq MSHR miss ticks (Tick)
system.cpu.dcache.ReadReq.mshrMissRate::cpu.data     0.181801                       # mshr miss rate for ReadReq accesses (Ratio)
system.cpu.dcache.ReadReq.mshrMissRate::total     0.181801                       # mshr miss rate for ReadReq accesses (Ratio)
system.cpu.dcache.ReadReq.avgMshrMissLatency::cpu.data        57000                       # average ReadReq mshr miss latency ((Tick/Count))
system.cpu.dcache.ReadReq.avgMshrMissLatency::total        57000                       # average ReadReq mshr miss latency ((Tick/Count))
system.cpu.dcache.WriteReq.hits::cpu.data        40980                       # number of WriteReq hits (Count)
system.cpu.dcache.WriteReq.hits::total          40980                       # number of WriteReq hits (Count)
system.cpu.dcache.WriteReq.misses::cpu.data        40961                       # number of WriteReq misses (Count)
system.cpu.dcache.WriteReq.misses::total        40961                       # number of WriteReq misses (Count)
system.cpu.dcache.WriteReq.missLatency::cpu.data   2416699000                       # number of WriteReq miss ticks (Tick)
system.cpu.dcache.WriteReq.missLatency::total   2416699000                       # number of WriteReq miss ticks (Tick)
system.cpu.dcache.WriteReq.accesses::cpu.data        81941                       # number of WriteReq accesses(hits+misses) (Count)
system.cpu.dcache.WriteReq.accesses::total        81941                       # number of WriteReq accesses(hits+misses) (Count)
system.cpu.dcache.WriteReq.missRate::cpu.data     0.499884                       # miss rate for WriteReq accesses (Ratio)
system.cpu.dcache.WriteReq.missRate::total     0.499884                       # miss rate for WriteReq accesses (Ratio)
system.cpu.dcache.WriteReq.avgMissLatency::cpu.data        59000                       # average WriteReq miss latency ((Tick/Count))
system.cpu.dcache.WriteReq.avgMissLatency::total        59000                       # average WriteReq miss latency ((Tick/Count))
system.cpu.dcache.WriteReq.mshrMisses::cpu.data        40961                       # number of WriteReq MSHR misses (Count)
system.cpu.dcache.WriteReq.mshrMisses::total        40961                       # number of WriteReq MSHR misses (Count)
system.cpu.dcache.WriteReq.mshrMissLatency::cpu.data   2334777000                       # number of WriteReq MSHR miss ticks (Tick)
system.cpu.dcache.WriteReq.mshrMissLatency::total   2334777000                       # number of WriteReq MSHR miss ticks (Tick)
system.cpu.dcache.WriteReq.mshrMissRate::cpu.data     0.499884                       # mshr miss rate for WriteReq accesses (Ratio)
system.cpu.dcache.WriteReq.mshrMissRate::total     0.499884                       # mshr miss rate for WriteReq accesses (Ratio)
system.cpu.dcache.WriteReq.avgMshrMissLatency::cpu.data        57000                       # average WriteReq mshr miss latency ((Tick/Count))
system.cpu.dcache.WriteReq.avgMshrMissLatency::total        57000                       # average WriteReq mshr miss latency ((Tick/Count))
system.cpu.dcache.power_state.pwrStateResidencyTicks::UNDEFINED  11694835000                       # Cumulative time (in ticks) in various power states (Tick)
system.cpu.dcache.tags.tagsInUse                  512                       # Average ticks per tags in use ((Tick/Count))
system.cpu.dcache.tags.totalRefs               122888                       # Total number of references to valid blocks. (Count)
system.cpu.dcache.tags.sampledRefs             122881                       # Sample count of references to valid blocks. (Count)
system.cpu.dcache.tags.avgRefs               1.000057                       # Average number of references to valid blocks. ((Count/Count))
system.cpu.dcache.tags.warmupTick                   0                       # The tick when the warmup percentage was hit. (Tick)
system.cpu.dcache.tags.occupancies::cpu.data          512                       # Average occupied blocks per tick, per requestor ((Count/Tick))
system.cpu.dcache.tags.avgOccs::cpu.data            1                       # Average percentage of cache occupancy ((Ratio/Tick))
system.cpu.dcache.tags.avgOccs::total               1                       # Average percentage of cache occupancy ((Ratio/Tick))
system.cpu.dcache.tags.occupanciesTaskId::1024          512                       # Occupied blocks per task id (Count)
system.cpu.dcache.tags.ageTaskId_1024::0          136                       # Occupied blocks per task id, per block age (Count)
system.cpu.dcache.tags.ageTaskId_1024::1          374                       # Occupied blocks per task id, per block age (Count)
system.cpu.dcache.tags.ageTaskId_1024::4            2                       # Occupied blocks per task id, per block age (Count)
system.cpu.dcache.tags.ratioOccsTaskId::1024            1                       # Ratio of occupied blocks and all blocks, per task id (Ratio)
system.cpu.dcache.tags.tagAccesses            1187967                       # Number of tag accesses (Count)
system.cpu.dcache.tags.dataAccesses           1187967                       # Number of data accesses (Count)
system.cpu.dcache.tags.power_state.pwrStateResidencyTicks::UNDEFINED  11694835000                       # Cumulative time (in ticks) in various power states (Tick)
system.cpu.exec_context.thread_0.numInsts      1065049                       # Number of instructions committed (Count)
system.cpu.exec_context.thread_0.numOps       1310951                       # Number of ops (including micro ops) committed (Count)
system.cpu.exec_context.thread_0.numIntAluAccesses      1310950                       # Number of integer alu accesses (Count)
system.cpu.exec_context.thread_0.numFpAluAccesses            0                       # Number of float alu accesses (Count)
system.cpu.exec_context.thread_0.numVecAluAccesses            0                       # Number of vector alu accesses (Count)
system.cpu.exec_context.thread_0.numCallsReturns            2                       # Number of times a function call or return occured (Count)
system.cpu.exec_context.thread_0.numCondCtrlInsts        40981                       # Number of instructions that are conditional controls (Count)
system.cpu.exec_context.thread_0.numIntInsts      1310950                       # Number of integer instructions (Count)
system.cpu.exec_context.thread_0.numFpInsts            0                       # Number of float instructions (Count)
system.cpu.exec_context.thread_0.numVecInsts            0                       # Number of vector instructions (Count)
system.cpu.exec_context.thread_0.numIntRegReads      2048215                       # Number of times the integer registers were read (Count)
system.cpu.exec_context.thread_0.numIntRegWrites      1147034                       # Number of times the integer registers were written (Count)
system.cpu.exec_context.thread_0.numFpRegReads            0                       # Number of times the floating registers were read (Count)
system.cpu.exec_context.thread_0.numFpRegWrites            0                       # Number of times the floating registers were written (Count)
system.cpu.exec_context.thread_0.numVecRegReads            0                       # Number of times the vector registers were read (Count)
system.cpu.exec_context.thread_0.numVecRegWrites            0                       # Number of times the vector registers were written (Count)
system.cpu.exec_context.thread_0.numVecPredRegReads            0                       # Number of times the predicate registers were read (Count)
system.cpu.exec_context.thread_0.numVecPredRegWrites            0                       # Number of times the predicate registers were written (Count)
system.cpu.exec_context.thread_0.numCCRegReads       327785                       # Number of times the CC registers were read (Count)
system.cpu.exec_context.thread_0.numCCRegWrites       737342                       # Number of times the CC registers were written (Count)
system.cpu.exec_context.thread_0.numMiscRegReads       614530                       # Number of times the Misc registers were read (Count)
system.cpu.exec_context.thread_0.numMiscRegWrites            0                       # Number of times the Misc registers were written (Count)
system.cpu.exec_context.thread_0.numMemRefs       532543                       # Number of memory refs (Count)
system.cpu.exec_context.thread_0.numLoadInsts       450602                       # Number of load instructions (Count)
system.cpu.exec_context.thread_0.numStoreInsts        81941                       # Number of store instructions (Count)
system.cpu.exec_context.thread_0.numIdleCycles            0                       # Number of idle cycles (Cycle)
system.cpu.exec_context.thread_0.numBusyCycles      9093576                       # Number of busy cycles (Cycle)
system.cpu.exec_context.thread_0.notIdleFraction            1                       # Percentage of non-idle cycles (Ratio)
system.cpu.exec_context.thread_0.idleFraction            0                       # Percentage of idle cycles (Ratio)
system.cpu.exec_context.thread_0.numBranches        40994                       # Number of branches fetched (Count)
system.cpu.exec_context.thread_0.statExecutedInstType::No_OpClass            0      0.00%      0.00% # Class of executed instruction. (Count)
system.cpu.exec_context.thread_0.statExecutedInstType::IntAlu       778408     59.38%     59.38% # Class of executed instruction. (Count)
system.cpu.exec_context.thread_0.statExecutedInstType::IntMult            0      0.00%     59.38% # Class of executed instruction. (Count)
system.cpu.exec_context.thread_0.statExecutedInstType::IntDiv            0      0.00%     59.38% # Class of executed instruction. (Count)
system.cpu.exec_context.thread_0.statExecutedInstType::FloatAdd            0      0.00%     59.38% # Class of executed instruction. (Count)
system.cpu.exec_context.thread_0.statExecutedInstType::FloatCmp            0      0.00%     59.38% # Class of executed instruction. (Count)
system.cpu.exec_context.thread_0.statExecutedInstType::FloatCvt            0      0.00%     59.38% # Class of executed instruction. (Count)
system.cpu.exec_context.thread_0.statExecutedInstType::FloatMult            0      0.00%     59.38% # Class of executed instruction. (Count)
system.cpu.exec_context.thread_0.statExecutedInstType::FloatMultAcc            0      0.00%     59.38% # Class of executed instruction. (Count)
system.cpu.exec_context.thread_0.statExecutedInstType::FloatDiv            0      0.00%     59.38% # Class of executed instruction. (Count)
system.cpu.exec_context.thread_0.statExecutedInstType::FloatMisc            0      0.00%     59.38% # Class of executed instruction. (Count)
system.cpu.exec_context.thread_0.statExecutedInstType::FloatSqrt            0      0.00%     59.38% # Class of executed instruction. (Count)
system.cpu.exec_context.thread_0.statExecutedInstType::SimdAdd            0      0.00%     59.38% # Class of executed instruction. (Count)
system.cpu.exec_context.thread_0.statExecutedInstType::SimdAddAcc            0      0.00%     59.38% # Class of executed instruction. (Count)
system.cpu.exec_context.thread_0.statExecutedInstType::SimdAlu            0      0.00%     59.38% # Class of executed instruction. (Count)
system.cpu.exec_context.thread_0.statExecutedInstType::SimdCmp            0      0.00%     59.38% # Class of executed instruction. (Count)
system.cpu.exec_context.thread_0.statExecutedInstType::SimdCvt            0      0.00%     59.38% # Class of executed instruction. (Count)
system.cpu.exec_context.thread_0.statExecutedInstType::SimdMisc            0      0.00%     59.38% # Class of executed instruction. (Count)
system.cpu.exec_context.thread_0.statExecutedInstType::SimdMult            0      0.00%     59.38% # Class of executed instruction. (Count)
system.cpu.exec_context.thread_0.statExecutedInstType::SimdMultAcc            0      0.00%     59.38% # Class of executed instruction. (Count)
system.cpu.exec_context.thread_0.statExecutedInstType::SimdShift            0      0.00%     59.38% # Class of executed instruction. (Count)
system.cpu.exec_context.thread_0.statExecutedInstType::SimdShiftAcc            0      0.00%     59.38% # Class of executed instruction. (Count)
system.cpu.exec_context.thread_0.statExecutedInstType::SimdDiv            0      0.00%     59.38% # Class of executed instruction. (Count)
system.cpu.exec_context.thread_0.statExecutedInstType::SimdSqrt            0      0.00%     59.38% # Class of executed instruction. (Count)
system.cpu.exec_context.thread_0.statExecutedInstType::SimdFloatAdd            0      0.00%     59.38% # Class of executed instruction. (Count)
system.cpu.exec_context.thread_0.statExecutedInstType::SimdFloatAlu            0      0.00%     59.38% # Class of executed instruction. (Count)
system.cpu.exec_context.thread_0.statExecutedInstType::SimdFloatCmp            0      0.00%     59.38% # Class of executed instruction. (Count)
system.cpu.exec_context.thread_0.statExecutedInstType::SimdFloatCvt            0      0.00%     59.38% # Class of executed instruction. (Count)
system.cpu.exec_context.thread_0.statExecutedInstType::SimdFloatDiv            0      0.00%     59.38% # Class of executed instruction. (Count)
system.cpu.exec_context.thread_0.statExecutedInstType::SimdFloatMisc            0      0.00%     59.38% # Class of executed instruction. (Count)
system.cpu.exec_context.thread_0.statExecutedInstType::SimdFloatMult            0      0.00%     59.38% # Class of executed instruction. (Count)
system.cpu.exec_context.thread_0.statExecutedInstType::SimdFloatMultAcc            0      0.00%     59.38% # Class of executed instruction. (Count)
system.cpu.exec_context.thread_0.statExecutedInstType::SimdFloatSqrt            0      0.00%     59.38% # Class of executed instruction. (Count)
system.cpu.exec_context.thread_0.statExecutedInstType::SimdReduceAdd            0      0.00%     59.38% # Class of executed instruction. (Count)
system.cpu.exec_context.thread_0.statExecutedInstType::SimdReduceAlu            0      0.00%     59.38% # Class of executed instruction. (Count)
system.cpu.exec_context.thread_0.statExecutedInstType::SimdReduceCmp            0      0.00%     59.38% # Class of executed instruction. (Count)
system.cpu.exec_context.thread_0.statExecutedInstType::SimdFloatReduceAdd            0      0.00%     59.38% # Class of executed instruction. (Count)
system.cpu.exec_context.thread_0.statExecutedInstType::SimdFloatReduceCmp            0      0.00%     59.38% # Class of executed instruction. (Count)
system.cpu.exec_context.thread_0.statExecutedInstType::SimdAes            0      0.00%     59.38% # Class of executed instruction. (Count)
system.cpu.exec_context.thread_0.statExecutedInstType::SimdAesMix            0      0.00%     59.38% # Class of executed instruction. (Count)
system.cpu.exec_context.thread_0.statExecutedInstType::SimdSha1Hash            0      0.00%     59.38% # Class of executed instruction. (Count)
system.cpu.exec_context.thread_0.statExecutedInstType::SimdSha1Hash2            0      0.00%     59.38% # Class of executed instruction. (Count)
system.cpu.exec_context.thread_0.statExecutedInstType::SimdSha256Hash            0      0.00%     59.38% # Class of executed instruction. (Count)
system.cpu.exec_context.thread_0.statExecutedInstType::SimdSha256Hash2            0      0.00%     59.38% # Class of executed instruction. (Count)
system.cpu.exec_context.thread_0.statExecutedInstType::SimdShaSigma2            0      0.00%     59.38% # Class of executed instruction. (Count)
system.cpu.exec_context.thread_0.statExecutedInstType::SimdShaSigma3            0      0.00%     59.38% # Class of executed instruction. (Count)
system.cpu.exec_context.thread_0.statExecutedInstType::SimdPredAlu            0      0.00%     59.38% # Class of executed instruction. (Count)
system.cpu.exec_context.thread_0.statExecutedInstType::MemRead       450602     34.37%     93.75% # Class of executed instruction. (Count)
system.cpu.exec_context.thread_0.statExecutedInstType::MemWrite        81941      6.25%    100.00% # Class of executed instruction. (Count)
system.cpu.exec_context.thread_0.statExecutedInstType::FloatMemRead            0      0.00%    100.00% # Class of executed instruction. (Count)
system.cpu.exec_context.thread_0.statExecutedInstType::FloatMemWrite            0      0.00%    100.00% # Class of executed instruction. (Count)
system.cpu.exec_context.thread_0.statExecutedInstType::IprAccess            0      0.00%    100.00% # Class of executed instruction. (Count)
system.cpu.exec_context.thread_0.statExecutedInstType::InstPrefetch            0      0.00%    100.00% # Class of executed instruction. (Count)
system.cpu.exec_context.thread_0.statExecutedInstType::total      1310951                       # Class of executed instruction. (Count)
system.cpu.icache.demandHits::cpu.inst        1433719                       # number of demand (read+write) hits (Count)
system.cpu.icache.demandHits::total           1433719                       # number of demand (read+write) hits (Count)
system.cpu.icache.overallHits::cpu.inst       1433719                       # number of overall hits (Count)
system.cpu.icache.overallHits::total          1433719                       # number of overall hits (Count)
system.cpu.icache.demandMisses::cpu.inst            2                       # number of demand (read+write) misses (Count)
system.cpu.icache.demandMisses::total               2                       # number of demand (read+write) misses (Count)
system.cpu.icache.overallMisses::cpu.inst            2                       # number of overall misses (Count)
system.cpu.icache.overallMisses::total              2                       # number of overall misses (Count)
system.cpu.icache.demandMissLatency::cpu.inst       216000                       # number of demand (read+write) miss ticks (Tick)
system.cpu.icache.demandMissLatency::total       216000                       # number of demand (read+write) miss ticks (Tick)
system.cpu.icache.overallMissLatency::cpu.inst       216000                       # number of overall miss ticks (Tick)
system.cpu.icache.overallMissLatency::total       216000                       # number of overall miss ticks (Tick)
system.cpu.icache.demandAccesses::cpu.inst      1433721                       # number of demand (read+write) accesses (Count)
system.cpu.icache.demandAccesses::total       1433721                       # number of demand (read+write) accesses (Count)
system.cpu.icache.overallAccesses::cpu.inst      1433721                       # number of overall (read+write) accesses (Count)
system.cpu.icache.overallAccesses::total      1433721                       # number of overall (read+write) accesses (Count)
system.cpu.icache.demandMissRate::cpu.inst     0.000001                       # miss rate for demand accesses (Ratio)
system.cpu.icache.demandMissRate::total      0.000001                       # miss rate for demand accesses (Ratio)
system.cpu.icache.overallMissRate::cpu.inst     0.000001                       # miss rate for overall accesses (Ratio)
system.cpu.icache.overallMissRate::total     0.000001                       # miss rate for overall accesses (Ratio)
system.cpu.icache.demandAvgMissLatency::cpu.inst       108000                       # average overall miss latency in ticks ((Tick/Count))
system.cpu.icache.demandAvgMissLatency::total       108000                       # average overall miss latency in ticks ((Tick/Count))
system.cpu.icache.overallAvgMissLatency::cpu.inst       108000                       # average overall miss latency ((Tick/Count))
system.cpu.icache.overallAvgMissLatency::total       108000                       # average overall miss latency ((Tick/Count))
system.cpu.icache.blockedCycles::no_mshrs            0                       # number of cycles access was blocked (Cycle)
system.cpu.icache.blockedCycles::no_targets            0                       # number of cycles access was blocked (Cycle)
system.cpu.icache.blockedCauses::no_mshrs            0                       # number of times access was blocked (Count)
system.cpu.icache.blockedCauses::no_targets            0                       # number of times access was blocked (Count)
system.cpu.icache.avgBlocked::no_mshrs            nan                       # average number of cycles each access was blocked ((Cycle/Count))
system.cpu.icache.avgBlocked::no_targets          nan                       # average number of cycles each access was blocked ((Cycle/Count))
system.cpu.icache.demandMshrMisses::cpu.inst            2                       # number of demand (read+write) MSHR misses (Count)
system.cpu.icache.demandMshrMisses::total            2                       # number of demand (read+write) MSHR misses (Count)
system.cpu.icache.overallMshrMisses::cpu.inst            2                       # number of overall MSHR misses (Count)
system.cpu.icache.overallMshrMisses::total            2                       # number of overall MSHR misses (Count)
system.cpu.icache.demandMshrMissLatency::cpu.inst       212000                       # number of demand (read+write) MSHR miss ticks (Tick)
system.cpu.icache.demandMshrMissLatency::total       212000                       # number of demand (read+write) MSHR miss ticks (Tick)
system.cpu.icache.overallMshrMissLatency::cpu.inst       212000                       # number of overall MSHR miss ticks (Tick)
system.cpu.icache.overallMshrMissLatency::total       212000                       # number of overall MSHR miss ticks (Tick)
system.cpu.icache.demandMshrMissRate::cpu.inst     0.000001                       # mshr miss ratio for demand accesses (Ratio)
system.cpu.icache.demandMshrMissRate::total     0.000001                       # mshr miss ratio for demand accesses (Ratio)
system.cpu.icache.overallMshrMissRate::cpu.inst     0.000001                       # mshr miss ratio for overall accesses (Ratio)
system.cpu.icache.overallMshrMissRate::total     0.000001                       # mshr miss ratio for overall accesses (Ratio)
system.cpu.icache.demandAvgMshrMissLatency::cpu.inst       106000                       # average overall mshr miss latency ((Tick/Count))
system.cpu.icache.demandAvgMshrMissLatency::total       106000                       # average overall mshr miss latency ((Tick/Count))
system.cpu.icache.overallAvgMshrMissLatency::cpu.inst       106000                       # average overall mshr miss latency ((Tick/Count))
system.cpu.icache.overallAvgMshrMissLatency::total       106000                       # average overall mshr miss latency ((Tick/Count))
system.cpu.icache.replacements                      2                       # number of replacements (Count)
system.cpu.icache.ReadReq.hits::cpu.inst      1433719                       # number of ReadReq hits (Count)
system.cpu.icache.ReadReq.hits::total         1433719                       # number of ReadReq hits (Count)
system.cpu.icache.ReadReq.misses::cpu.inst            2                       # number of ReadReq misses (Count)
system.cpu.icache.ReadReq.misses::total             2                       # number of ReadReq misses (Count)
system.cpu.icache.ReadReq.missLatency::cpu.inst       216000                       # number of ReadReq miss ticks (Tick)
system.cpu.icache.ReadReq.missLatency::total       216000                       # number of ReadReq miss ticks (Tick)
system.cpu.icache.ReadReq.accesses::cpu.inst      1433721                       # number of ReadReq accesses(hits+misses) (Count)
system.cpu.icache.ReadReq.accesses::total      1433721                       # number of ReadReq accesses(hits+misses) (Count)
system.cpu.icache.ReadReq.missRate::cpu.inst     0.000001                       # miss rate for ReadReq accesses (Ratio)
system.cpu.icache.ReadReq.missRate::total     0.000001                       # miss rate for ReadReq accesses (Ratio)
system.cpu.icache.ReadReq.avgMissLatency::cpu.inst       108000                       # average ReadReq miss latency ((Tick/Count))
system.cpu.icache.ReadReq.avgMissLatency::total       108000                       # average ReadReq miss latency ((Tick/Count))
system.cpu.icache.ReadReq.mshrMisses::cpu.inst            2                       # number of ReadReq MSHR misses (Count)
system.cpu.icache.ReadReq.mshrMisses::total            2                       # number of ReadReq MSHR misses (Count)
system.cpu.icache.ReadReq.mshrMissLatency::cpu.inst       212000                       # number of ReadReq MSHR miss ticks (Tick)
system.cpu.icache.ReadReq.mshrMissLatency::total       212000                       # number of ReadReq MSHR miss ticks (Tick)
system.cpu.icache.ReadReq.mshrMissRate::cpu.inst     0.000001                       # mshr miss rate for ReadReq accesses (Ratio)
system.cpu.icache.ReadReq.mshrMissRate::total     0.000001                       # mshr miss rate for ReadReq accesses (Ratio)
system.cpu.icache.ReadReq.avgMshrMissLatency::cpu.inst       106000                       # average ReadReq mshr miss latency ((Tick/Count))
system.cpu.icache.ReadReq.avgMshrMissLatency::total       106000                       # average ReadReq mshr miss latency ((Tick/Count))
system.cpu.icache.power_state.pwrStateResidencyTicks::UNDEFINED  11694835000                       # Cumulative time (in ticks) in various power states (Tick)
system.cpu.icache.tags.tagsInUse                  233                       # Average ticks per tags in use ((Tick/Count))
system.cpu.icache.tags.totalRefs                   20                       # Total number of references to valid blocks. (Count)
system.cpu.icache.tags.sampledRefs                  2                       # Sample count of references to valid blocks. (Count)
system.cpu.icache.tags.avgRefs                     10                       # Average number of references to valid blocks. ((Count/Count))
system.cpu.icache.tags.warmupTick                   0                       # The tick when the warmup percentage was hit. (Tick)
system.cpu.icache.tags.occupancies::cpu.inst          233                       # Average occupied blocks per tick, per requestor ((Count/Tick))
system.cpu.icache.tags.avgOccs::cpu.inst     0.910156                       # Average percentage of cache occupancy ((Ratio/Tick))
system.cpu.icache.tags.avgOccs::total        0.910156                       # Average percentage of cache occupancy ((Ratio/Tick))
system.cpu.icache.tags.occupanciesTaskId::1024          233                       # Occupied blocks per task id (Count)
system.cpu.icache.tags.ageTaskId_1024::3            6                       # Occupied blocks per task id, per block age (Count)
system.cpu.icache.tags.ageTaskId_1024::4          227                       # Occupied blocks per task id, per block age (Count)
system.cpu.icache.tags.ratioOccsTaskId::1024     0.910156                       # Ratio of occupied blocks and all blocks, per task id (Ratio)
system.cpu.icache.tags.tagAccesses            2867444                       # Number of tag accesses (Count)
system.cpu.icache.tags.dataAccesses           2867444                       # Number of data accesses (Count)
system.cpu.icache.tags.power_state.pwrStateResidencyTicks::UNDEFINED  11694835000                       # Cumulative time (in ticks) in various power states (Tick)
system.cpu.interrupts.clk_domain.clock          16000                       # Clock period in ticks (Tick)
system.cpu.mmu.dtb.rdAccesses                  450602                       # TLB accesses on read requests (Count)
system.cpu.mmu.dtb.wrAccesses                   81941                       # TLB accesses on write requests (Count)
system.cpu.mmu.dtb.rdMisses                      1280                       # TLB misses on read requests (Count)
system.cpu.mmu.dtb.wrMisses                       640                       # TLB misses on write requests (Count)
system.cpu.mmu.dtb.walker.power_state.pwrStateResidencyTicks::UNDEFINED  11694835000                       # Cumulative time (in ticks) in various power states (Tick)
system.cpu.mmu.itb.rdAccesses                       0                       # TLB accesses on read requests (Count)
system.cpu.mmu.itb.wrAccesses                 1433721                       # TLB accesses on write requests (Count)
system.cpu.mmu.itb.rdMisses                         0                       # TLB misses on read requests (Count)
system.cpu.mmu.itb.wrMisses                         0                       # TLB misses on write requests (Count)
system.cpu.mmu.itb.walker.power_state.pwrStateResidencyTicks::UNDEFINED  11694835000                       # Cumulative time (in ticks) in various power states (Tick)
system.cpu.power_state.pwrStateResidencyTicks::ON  11694835000                       # Cumulative time (in ticks) in various power states (Tick)
system.cpu.thread_0.numInsts                        0                       # Number of Instructions committed (Count)
system.cpu.thread_0.numOps                          0                       # Number of Ops committed (Count)
system.cpu.thread_0.numMemRefs                      0                       # Number of Memory References (Count)
system.cpu.workload.numSyscalls                     0                       # Number of system calls (Count)
system.l2bus.transDist::ReadResp                81922                       # Transaction distribution (Count)
system.l2bus.transDist::WritebackDirty          87060                       # Transaction distribution (Count)
system.l2bus.transDist::CleanEvict             158706                       # Transaction distribution (Count)
system.l2bus.transDist::ReadExReq               40961                       # Transaction distribution (Count)
system.l2bus.transDist::ReadExResp              40961                       # Transaction distribution (Count)
system.l2bus.transDist::ReadSharedReq           81922                       # Transaction distribution (Count)
system.l2bus.pktCount_system.cpu.icache.mem_side_port::system.l2cache.cpu_side_port            6                       # Packet count per connected requestor and responder (Count)
system.l2bus.pktCount_system.cpu.dcache.mem_side_port::system.l2cache.cpu_side_port       368643                       # Packet count per connected requestor and responder (Count)
system.l2bus.pktCount::total                   368649                       # Packet count per connected requestor and responder (Count)
system.l2bus.pktSize_system.cpu.icache.mem_side_port::system.l2cache.cpu_side_port          128                       # Cumulative packet size per connected requestor and responder (Byte)
system.l2bus.pktSize_system.cpu.dcache.mem_side_port::system.l2cache.cpu_side_port     10485888                       # Cumulative packet size per connected requestor and responder (Byte)
system.l2bus.pktSize::total                  10486016                       # Cumulative packet size per connected requestor and responder (Byte)
system.l2bus.snoops                            122883                       # Total snoops (Count)
system.l2bus.snoopTraffic                     2950336                       # Total snoop traffic (Byte)
system.l2bus.snoopFanout::samples              245766                       # Request fanout histogram (Count)
system.l2bus.snoopFanout::mean               0.000024                       # Request fanout histogram (Count)
system.l2bus.snoopFanout::stdev              0.004941                       # Request fanout histogram (Count)
system.l2bus.snoopFanout::underflows                0      0.00%      0.00% # Request fanout histogram (Count)
system.l2bus.snoopFanout::0                    245760    100.00%    100.00% # Request fanout histogram (Count)
system.l2bus.snoopFanout::1                         6      0.00%    100.00% # Request fanout histogram (Count)
system.l2bus.snoopFanout::2                         0      0.00%    100.00% # Request fanout histogram (Count)
system.l2bus.snoopFanout::overflows                 0      0.00%    100.00% # Request fanout histogram (Count)
system.l2bus.snoopFanout::min_value                 0                       # Request fanout histogram (Count)
system.l2bus.snoopFanout::max_value                 1                       # Request fanout histogram (Count)
system.l2bus.snoopFanout::total                245766                       # Request fanout histogram (Count)
system.l2bus.power_state.pwrStateResidencyTicks::UNDEFINED  11694835000                       # Cumulative time (in ticks) in various power states (Tick)
system.l2bus.reqLayer0.occupancy            327688000                       # Layer occupancy (ticks) (Tick)
system.l2bus.reqLayer0.utilization                0.0                       # Layer utilization (Ratio)
system.l2bus.respLayer0.occupancy                6000                       # Layer occupancy (ticks) (Tick)
system.l2bus.respLayer0.utilization               0.0                       # Layer utilization (Ratio)
system.l2bus.respLayer1.occupancy           368643000                       # Layer occupancy (ticks) (Tick)
system.l2bus.respLayer1.utilization               0.0                       # Layer utilization (Ratio)
system.l2bus.snoop_filter.totRequests          245766                       # Total number of requests made to the snoop filter. (Count)
system.l2bus.snoop_filter.hitSingleRequests       122883                       # Number of requests hitting in the snoop filter with a single holder of the requested data. (Count)
system.l2bus.snoop_filter.hitMultiRequests            0                       # Number of requests hitting in the snoop filter with multiple (>1) holders of the requested data. (Count)
system.l2bus.snoop_filter.totSnoops                 6                       # Total number of snoops made to the snoop filter. (Count)
system.l2bus.snoop_filter.hitSingleSnoops            6                       # Number of snoops hitting in the snoop filter with a single holder of the requested data. (Count)
system.l2bus.snoop_filter.hitMultiSnoops            0                       # Number of snoops hitting in the snoop filter with multiple (>1) holders of the requested data. (Count)
system.l2cache.demandMisses::cpu.inst               2                       # number of demand (read+write) misses (Count)
system.l2cache.demandMisses::cpu.data          122881                       # number of demand (read+write) misses (Count)
system.l2cache.demandMisses::total             122883                       # number of demand (read+write) misses (Count)
system.l2cache.overallMisses::cpu.inst              2                       # number of overall misses (Count)
system.l2cache.overallMisses::cpu.data         122881                       # number of overall misses (Count)
system.l2cache.overallMisses::total            122883                       # number of overall misses (Count)
system.l2cache.demandMissLatency::cpu.inst       208000                       # number of demand (read+write) miss ticks (Tick)
system.l2cache.demandMissLatency::cpu.data   6758455000                       # number of demand (read+write) miss ticks (Tick)
system.l2cache.demandMissLatency::total    6758663000                       # number of demand (read+write) miss ticks (Tick)
system.l2cache.overallMissLatency::cpu.inst       208000                       # number of overall miss ticks (Tick)
system.l2cache.overallMissLatency::cpu.data   6758455000                       # number of overall miss ticks (Tick)
system.l2cache.overallMissLatency::total   6758663000                       # number of overall miss ticks (Tick)
system.l2cache.demandAccesses::cpu.inst             2                       # number of demand (read+write) accesses (Count)
system.l2cache.demandAccesses::cpu.data        122881                       # number of demand (read+write) accesses (Count)
system.l2cache.demandAccesses::total           122883                       # number of demand (read+write) accesses (Count)
system.l2cache.overallAccesses::cpu.inst            2                       # number of overall (read+write) accesses (Count)
system.l2cache.overallAccesses::cpu.data       122881                       # number of overall (read+write) accesses (Count)
system.l2cache.overallAccesses::total          122883                       # number of overall (read+write) accesses (Count)
system.l2cache.demandMissRate::cpu.inst             1                       # miss rate for demand accesses (Ratio)
system.l2cache.demandMissRate::cpu.data             1                       # miss rate for demand accesses (Ratio)
system.l2cache.demandMissRate::total                1                       # miss rate for demand accesses (Ratio)
system.l2cache.overallMissRate::cpu.inst            1                       # miss rate for overall accesses (Ratio)
system.l2cache.overallMissRate::cpu.data            1                       # miss rate for overall accesses (Ratio)
system.l2cache.overallMissRate::total               1                       # miss rate for overall accesses (Ratio)
system.l2cache.demandAvgMissLatency::cpu.inst       104000                       # average overall miss latency in ticks ((Tick/Count))
system.l2cache.demandAvgMissLatency::cpu.data        55000                       # average overall miss latency in ticks ((Tick/Count))
system.l2cache.demandAvgMissLatency::total 55000.797507                       # average overall miss latency in ticks ((Tick/Count))
system.l2cache.overallAvgMissLatency::cpu.inst       104000                       # average overall miss latency ((Tick/Count))
system.l2cache.overallAvgMissLatency::cpu.data        55000                       # average overall miss latency ((Tick/Count))
system.l2cache.overallAvgMissLatency::total 55000.797507                       # average overall miss latency ((Tick/Count))
system.l2cache.blockedCycles::no_mshrs              0                       # number of cycles access was blocked (Cycle)
system.l2cache.blockedCycles::no_targets            0                       # number of cycles access was blocked (Cycle)
system.l2cache.blockedCauses::no_mshrs              0                       # number of times access was blocked (Count)
system.l2cache.blockedCauses::no_targets            0                       # number of times access was blocked (Count)
system.l2cache.avgBlocked::no_mshrs               nan                       # average number of cycles each access was blocked ((Cycle/Count))
system.l2cache.avgBlocked::no_targets             nan                       # average number of cycles each access was blocked ((Cycle/Count))
system.l2cache.writebacks::writebacks           46099                       # number of writebacks (Count)
system.l2cache.writebacks::total                46099                       # number of writebacks (Count)
system.l2cache.demandMshrMisses::cpu.inst            2                       # number of demand (read+write) MSHR misses (Count)
system.l2cache.demandMshrMisses::cpu.data       122881                       # number of demand (read+write) MSHR misses (Count)
system.l2cache.demandMshrMisses::total         122883                       # number of demand (read+write) MSHR misses (Count)
system.l2cache.overallMshrMisses::cpu.inst            2                       # number of overall MSHR misses (Count)
system.l2cache.overallMshrMisses::cpu.data       122881                       # number of overall MSHR misses (Count)
system.l2cache.overallMshrMisses::total        122883                       # number of overall MSHR misses (Count)
system.l2cache.demandMshrMissLatency::cpu.inst       168000                       # number of demand (read+write) MSHR miss ticks (Tick)
system.l2cache.demandMshrMissLatency::cpu.data   4300835000                       # number of demand (read+write) MSHR miss ticks (Tick)
system.l2cache.demandMshrMissLatency::total   4301003000                       # number of demand (read+write) MSHR miss ticks (Tick)
system.l2cache.overallMshrMissLatency::cpu.inst       168000                       # number of overall MSHR miss ticks (Tick)
system.l2cache.overallMshrMissLatency::cpu.data   4300835000                       # number of overall MSHR miss ticks (Tick)
system.l2cache.overallMshrMissLatency::total   4301003000                       # number of overall MSHR miss ticks (Tick)
system.l2cache.demandMshrMissRate::cpu.inst            1                       # mshr miss ratio for demand accesses (Ratio)
system.l2cache.demandMshrMissRate::cpu.data            1                       # mshr miss ratio for demand accesses (Ratio)
system.l2cache.demandMshrMissRate::total            1                       # mshr miss ratio for demand accesses (Ratio)
system.l2cache.overallMshrMissRate::cpu.inst            1                       # mshr miss ratio for overall accesses (Ratio)
system.l2cache.overallMshrMissRate::cpu.data            1                       # mshr miss ratio for overall accesses (Ratio)
system.l2cache.overallMshrMissRate::total            1                       # mshr miss ratio for overall accesses (Ratio)
system.l2cache.demandAvgMshrMissLatency::cpu.inst        84000                       # average overall mshr miss latency ((Tick/Count))
system.l2cache.demandAvgMshrMissLatency::cpu.data        35000                       # average overall mshr miss latency ((Tick/Count))
system.l2cache.demandAvgMshrMissLatency::total 35000.797507                       # average overall mshr miss latency ((Tick/Count))
system.l2cache.overallAvgMshrMissLatency::cpu.inst        84000                       # average overall mshr miss latency ((Tick/Count))
system.l2cache.overallAvgMshrMissLatency::cpu.data        35000                       # average overall mshr miss latency ((Tick/Count))
system.l2cache.overallAvgMshrMissLatency::total 35000.797507                       # average overall mshr miss latency ((Tick/Count))
system.l2cache.replacements                    122883                       # number of replacements (Count)
system.l2cache.CleanEvict.mshrMisses::writebacks            2                       # number of CleanEvict MSHR misses (Count)
system.l2cache.CleanEvict.mshrMisses::total            2                       # number of CleanEvict MSHR misses (Count)
system.l2cache.CleanEvict.mshrMissRate::writebacks          inf                       # mshr miss rate for CleanEvict accesses (Ratio)
system.l2cache.CleanEvict.mshrMissRate::total          inf                       # mshr miss rate for CleanEvict accesses (Ratio)
system.l2cache.ReadExReq.misses::cpu.data        40961                       # number of ReadExReq misses (Count)
system.l2cache.ReadExReq.misses::total          40961                       # number of ReadExReq misses (Count)
system.l2cache.ReadExReq.missLatency::cpu.data   2252855000                       # number of ReadExReq miss ticks (Tick)
system.l2cache.ReadExReq.missLatency::total   2252855000                       # number of ReadExReq miss ticks (Tick)
system.l2cache.ReadExReq.accesses::cpu.data        40961                       # number of ReadExReq accesses(hits+misses) (Count)
system.l2cache.ReadExReq.accesses::total        40961                       # number of ReadExReq accesses(hits+misses) (Count)
system.l2cache.ReadExReq.missRate::cpu.data            1                       # miss rate for ReadExReq accesses (Ratio)
system.l2cache.ReadExReq.missRate::total            1                       # miss rate for ReadExReq accesses (Ratio)
system.l2cache.ReadExReq.avgMissLatency::cpu.data        55000                       # average ReadExReq miss latency ((Tick/Count))
system.l2cache.ReadExReq.avgMissLatency::total        55000                       # average ReadExReq miss latency ((Tick/Count))
system.l2cache.ReadExReq.mshrMisses::cpu.data        40961                       # number of ReadExReq MSHR misses (Count)
system.l2cache.ReadExReq.mshrMisses::total        40961                       # number of ReadExReq MSHR misses (Count)
system.l2cache.ReadExReq.mshrMissLatency::cpu.data   1433635000                       # number of ReadExReq MSHR miss ticks (Tick)
system.l2cache.ReadExReq.mshrMissLatency::total   1433635000                       # number of ReadExReq MSHR miss ticks (Tick)
system.l2cache.ReadExReq.mshrMissRate::cpu.data            1                       # mshr miss rate for ReadExReq accesses (Ratio)
system.l2cache.ReadExReq.mshrMissRate::total            1                       # mshr miss rate for ReadExReq accesses (Ratio)
system.l2cache.ReadExReq.avgMshrMissLatency::cpu.data        35000                       # average ReadExReq mshr miss latency ((Tick/Count))
system.l2cache.ReadExReq.avgMshrMissLatency::total        35000                       # average ReadExReq mshr miss latency ((Tick/Count))
system.l2cache.ReadSharedReq.misses::cpu.inst            2                       # number of ReadSharedReq misses (Count)
system.l2cache.ReadSharedReq.misses::cpu.data        81920                       # number of ReadSharedReq misses (Count)
system.l2cache.ReadSharedReq.misses::total        81922                       # number of ReadSharedReq misses (Count)
system.l2cache.ReadSharedReq.missLatency::cpu.inst       208000                       # number of ReadSharedReq miss ticks (Tick)
system.l2cache.ReadSharedReq.missLatency::cpu.data   4505600000                       # number of ReadSharedReq miss ticks (Tick)
system.l2cache.ReadSharedReq.missLatency::total   4505808000                       # number of ReadSharedReq miss ticks (Tick)
system.l2cache.ReadSharedReq.accesses::cpu.inst            2                       # number of ReadSharedReq accesses(hits+misses) (Count)
system.l2cache.ReadSharedReq.accesses::cpu.data        81920                       # number of ReadSharedReq accesses(hits+misses) (Count)
system.l2cache.ReadSharedReq.accesses::total        81922                       # number of ReadSharedReq accesses(hits+misses) (Count)
system.l2cache.ReadSharedReq.missRate::cpu.inst            1                       # miss rate for ReadSharedReq accesses (Ratio)
system.l2cache.ReadSharedReq.missRate::cpu.data            1                       # miss rate for ReadSharedReq accesses (Ratio)
system.l2cache.ReadSharedReq.missRate::total            1                       # miss rate for ReadSharedReq accesses (Ratio)
system.l2cache.ReadSharedReq.avgMissLatency::cpu.inst       104000                       # average ReadSharedReq miss latency ((Tick/Count))
system.l2cache.ReadSharedReq.avgMissLatency::cpu.data        55000                       # average ReadSharedReq miss latency ((Tick/Count))
system.l2cache.ReadSharedReq.avgMissLatency::total 55001.196260                       # average ReadSharedReq miss latency ((Tick/Count))
system.l2cache.ReadSharedReq.mshrMisses::cpu.inst            2                       # number of ReadSharedReq MSHR misses (Count)
system.l2cache.ReadSharedReq.mshrMisses::cpu.data        81920                       # number of ReadSharedReq MSHR misses (Count)
system.l2cache.ReadSharedReq.mshrMisses::total        81922                       # number of ReadSharedReq MSHR misses (Count)
system.l2cache.ReadSharedReq.mshrMissLatency::cpu.inst       168000                       # number of ReadSharedReq MSHR miss ticks (Tick)
system.l2cache.ReadSharedReq.mshrMissLatency::cpu.data   2867200000                       # number of ReadSharedReq MSHR miss ticks (Tick)
system.l2cache.ReadSharedReq.mshrMissLatency::total   2867368000                       # number of ReadSharedReq MSHR miss ticks (Tick)
system.l2cache.ReadSharedReq.mshrMissRate::cpu.inst            1                       # mshr miss rate for ReadSharedReq accesses (Ratio)
system.l2cache.ReadSharedReq.mshrMissRate::cpu.data            1                       # mshr miss rate for ReadSharedReq accesses (Ratio)
system.l2cache.ReadSharedReq.mshrMissRate::total            1                       # mshr miss rate for ReadSharedReq accesses (Ratio)
system.l2cache.ReadSharedReq.avgMshrMissLatency::cpu.inst        84000                       # average ReadSharedReq mshr miss latency ((Tick/Count))
system.l2cache.ReadSharedReq.avgMshrMissLatency::cpu.data        35000                       # average ReadSharedReq mshr miss latency ((Tick/Count))
system.l2cache.ReadSharedReq.avgMshrMissLatency::total 35001.196260                       # average ReadSharedReq mshr miss latency ((Tick/Count))
system.l2cache.WritebackDirty.hits::writebacks        40961                       # number of WritebackDirty hits (Count)
system.l2cache.WritebackDirty.hits::total        40961                       # number of WritebackDirty hits (Count)
system.l2cache.WritebackDirty.accesses::writebacks        40961                       # number of WritebackDirty accesses(hits+misses) (Count)
system.l2cache.WritebackDirty.accesses::total        40961                       # number of WritebackDirty accesses(hits+misses) (Count)
system.l2cache.power_state.pwrStateResidencyTicks::UNDEFINED  11694835000                       # Cumulative time (in ticks) in various power states (Tick)
system.l2cache.tags.tagsInUse                    4096                       # Average ticks per tags in use ((Tick/Count))
system.l2cache.tags.totalRefs                  245760                       # Total number of references to valid blocks. (Count)
system.l2cache.tags.sampledRefs                122883                       # Sample count of references to valid blocks. (Count)
system.l2cache.tags.avgRefs                  1.999951                       # Average number of references to valid blocks. ((Count/Count))
system.l2cache.tags.warmupTick                      0                       # The tick when the warmup percentage was hit. (Tick)
system.l2cache.tags.occupancies::cpu.inst     0.158044                       # Average occupied blocks per tick, per requestor ((Count/Tick))
system.l2cache.tags.occupancies::cpu.data  4095.841956                       # Average occupied blocks per tick, per requestor ((Count/Tick))
system.l2cache.tags.avgOccs::cpu.inst        0.000039                       # Average percentage of cache occupancy ((Ratio/Tick))
system.l2cache.tags.avgOccs::cpu.data        0.999961                       # Average percentage of cache occupancy ((Ratio/Tick))
system.l2cache.tags.avgOccs::total                  1                       # Average percentage of cache occupancy ((Ratio/Tick))
system.l2cache.tags.occupanciesTaskId::1024         4096                       # Occupied blocks per task id (Count)
system.l2cache.tags.ageTaskId_1024::0             135                       # Occupied blocks per task id, per block age (Count)
system.l2cache.tags.ageTaskId_1024::1            1216                       # Occupied blocks per task id, per block age (Count)
system.l2cache.tags.ageTaskId_1024::2            2745                       # Occupied blocks per task id, per block age (Count)
system.l2cache.tags.ratioOccsTaskId::1024            1                       # Ratio of occupied blocks and all blocks, per task id (Ratio)
system.l2cache.tags.tagAccesses               2089011                       # Number of tag accesses (Count)
system.l2cache.tags.dataAccesses              2089011                       # Number of data accesses (Count)
system.l2cache.tags.power_state.pwrStateResidencyTicks::UNDEFINED  11694835000                       # Cumulative time (in ticks) in various power states (Tick)
system.l3bus.transDist::ReadResp                81922                       # Transaction distribution (Count)
system.l3bus.transDist::WritebackDirty          46099                       # Transaction distribution (Count)
system.l3bus.transDist::CleanEvict              76781                       # Transaction distribution (Count)
system.l3bus.transDist::ReadExReq               40961                       # Transaction distribution (Count)
system.l3bus.transDist::ReadExResp              40961                       # Transaction distribution (Count)
system.l3bus.transDist::ReadSharedReq           81922                       # Transaction distribution (Count)
system.l3bus.pktCount_system.l2cache.mem_side_port::system.l3cache.cpu_side_port       368646                       # Packet count per connected requestor and responder (Count)
system.l3bus.pktSize_system.l2cache.mem_side_port::system.l3cache.cpu_side_port     10814848                       # Cumulative packet size per connected requestor and responder (Byte)
system.l3bus.snoops                                 0                       # Total snoops (Count)
system.l3bus.snoopTraffic                           0                       # Total snoop traffic (Byte)
system.l3bus.snoopFanout::samples              122883                       # Request fanout histogram (Count)
system.l3bus.snoopFanout::mean                      0                       # Request fanout histogram (Count)
system.l3bus.snoopFanout::stdev                     0                       # Request fanout histogram (Count)
system.l3bus.snoopFanout::underflows                0      0.00%      0.00% # Request fanout histogram (Count)
system.l3bus.snoopFanout::0                    122883    100.00%    100.00% # Request fanout histogram (Count)
system.l3bus.snoopFanout::1                         0      0.00%    100.00% # Request fanout histogram (Count)
system.l3bus.snoopFanout::overflows                 0      0.00%    100.00% # Request fanout histogram (Count)
system.l3bus.snoopFanout::min_value                 0                       # Request fanout histogram (Count)
system.l3bus.snoopFanout::max_value                 0                       # Request fanout histogram (Count)
system.l3bus.snoopFanout::total                122883                       # Request fanout histogram (Count)
system.l3bus.power_state.pwrStateResidencyTicks::UNDEFINED  11694835000                       # Cumulative time (in ticks) in various power states (Tick)
system.l3bus.reqLayer0.occupancy            337961000                       # Layer occupancy (ticks) (Tick)
system.l3bus.reqLayer0.utilization                0.0                       # Layer utilization (Ratio)
system.l3bus.respLayer0.occupancy           368649000                       # Layer occupancy (ticks) (Tick)
system.l3bus.respLayer0.utilization               0.0                       # Layer utilization (Ratio)
system.l3bus.snoop_filter.totRequests          245763                       # Total number of requests made to the snoop filter. (Count)
system.l3bus.snoop_filter.hitSingleRequests       122880                       # Number of requests hitting in the snoop filter with a single holder of the requested data. (Count)
system.l3bus.snoop_filter.hitMultiRequests            0                       # Number of requests hitting in the snoop filter with multiple (>1) holders of the requested data. (Count)
system.l3bus.snoop_filter.totSnoops                 0                       # Total number of snoops made to the snoop filter. (Count)
system.l3bus.snoop_filter.hitSingleSnoops            0                       # Number of snoops hitting in the snoop filter with a single holder of the requested data. (Count)
system.l3bus.snoop_filter.hitMultiSnoops            0                       # Number of snoops hitting in the snoop filter with multiple (>1) holders of the requested data. (Count)
system.l3cache.demandHits::cpu.data            122881                       # number of demand (read+write) hits (Count)
system.l3cache.demandHits::total               122881                       # number of demand (read+write) hits (Count)
system.l3cache.overallHits::cpu.data           122881                       # number of overall hits (Count)
system.l3cache.overallHits::total              122881                       # number of overall hits (Count)
system.l3cache.demandMisses::cpu.inst               2                       # number of demand (read+write) misses (Count)
system.l3cache.demandMisses::total                  2                       # number of demand (read+write) misses (Count)
system.l3cache.overallMisses::cpu.inst              2                       # number of overall misses (Count)
system.l3cache.overallMisses::total                 2                       # number of overall misses (Count)
system.l3cache.demandMissLatency::cpu.inst       160000                       # number of demand (read+write) miss ticks (Tick)
system.l3cache.demandMissLatency::total        160000                       # number of demand (read+write) miss ticks (Tick)
system.l3cache.overallMissLatency::cpu.inst       160000                       # number of overall miss ticks (Tick)
system.l3cache.overallMissLatency::total       160000                       # number of overall miss ticks (Tick)
system.l3cache.demandAccesses::cpu.inst             2                       # number of demand (read+write) accesses (Count)
system.l3cache.demandAccesses::cpu.data        122881                       # number of demand (read+write) accesses (Count)
system.l3cache.demandAccesses::total           122883                       # number of demand (read+write) accesses (Count)
system.l3cache.overallAccesses::cpu.inst            2                       # number of overall (read+write) accesses (Count)
system.l3cache.overallAccesses::cpu.data       122881                       # number of overall (read+write) accesses (Count)
system.l3cache.overallAccesses::total          122883                       # number of overall (read+write) accesses (Count)
system.l3cache.demandMissRate::cpu.inst             1                       # miss rate for demand accesses (Ratio)
system.l3cache.demandMissRate::total         0.000016                       # miss rate for demand accesses (Ratio)
system.l3cache.overallMissRate::cpu.inst            1                       # miss rate for overall accesses (Ratio)
system.l3cache.overallMissRate::total        0.000016                       # miss rate for overall accesses (Ratio)
system.l3cache.demandAvgMissLatency::cpu.inst        80000                       # average overall miss latency in ticks ((Tick/Count))
system.l3cache.demandAvgMissLatency::total        80000                       # average overall miss latency in ticks ((Tick/Count))
system.l3cache.overallAvgMissLatency::cpu.inst        80000                       # average overall miss latency ((Tick/Count))
system.l3cache.overallAvgMissLatency::total        80000                       # average overall miss latency ((Tick/Count))
system.l3cache.blockedCycles::no_mshrs              0                       # number of cycles access was blocked (Cycle)
system.l3cache.blockedCycles::no_targets            0                       # number of cycles access was blocked (Cycle)
system.l3cache.blockedCauses::no_mshrs              0                       # number of times access was blocked (Count)
system.l3cache.blockedCauses::no_targets            0                       # number of times access was blocked (Count)
system.l3cache.avgBlocked::no_mshrs               nan                       # average number of cycles each access was blocked ((Cycle/Count))
system.l3cache.avgBlocked::no_targets             nan                       # average number of cycles each access was blocked ((Cycle/Count))
system.l3cache.demandMshrMisses::cpu.inst            2                       # number of demand (read+write) MSHR misses (Count)
system.l3cache.demandMshrMisses::total              2                       # number of demand (read+write) MSHR misses (Count)
system.l3cache.overallMshrMisses::cpu.inst            2                       # number of overall MSHR misses (Count)
system.l3cache.overallMshrMisses::total             2                       # number of overall MSHR misses (Count)
system.l3cache.demandMshrMissLatency::cpu.inst       120000                       # number of demand (read+write) MSHR miss ticks (Tick)
system.l3cache.demandMshrMissLatency::total       120000                       # number of demand (read+write) MSHR miss ticks (Tick)
system.l3cache.overallMshrMissLatency::cpu.inst       120000                       # number of overall MSHR miss ticks (Tick)
system.l3cache.overallMshrMissLatency::total       120000                       # number of overall MSHR miss ticks (Tick)
system.l3cache.demandMshrMissRate::cpu.inst            1                       # mshr miss ratio for demand accesses (Ratio)
system.l3cache.demandMshrMissRate::total     0.000016                       # mshr miss ratio for demand accesses (Ratio)
system.l3cache.overallMshrMissRate::cpu.inst            1                       # mshr miss ratio for overall accesses (Ratio)
system.l3cache.overallMshrMissRate::total     0.000016                       # mshr miss ratio for overall accesses (Ratio)
system.l3cache.demandAvgMshrMissLatency::cpu.inst        60000                       # average overall mshr miss latency ((Tick/Count))
system.l3cache.demandAvgMshrMissLatency::total        60000                       # average overall mshr miss latency ((Tick/Count))
system.l3cache.overallAvgMshrMissLatency::cpu.inst        60000                       # average overall mshr miss latency ((Tick/Count))
system.l3cache.overallAvgMshrMissLatency::total        60000                       # average overall mshr miss latency ((Tick/Count))
system.l3cache.replacements                         0                       # number of replacements (Count)
system.l3cache.ReadExReq.hits::cpu.data         40961                       # number of ReadExReq hits (Count)
system.l3cache.ReadExReq.hits::total            40961                       # number of ReadExReq hits (Count)
system.l3cache.ReadExReq.accesses::cpu.data        40961                       # number of ReadExReq accesses(hits+misses) (Count)
system.l3cache.ReadExReq.accesses::total        40961                       # number of ReadExReq accesses(hits+misses) (Count)
system.l3cache.ReadSharedReq.hits::cpu.data        81920                       # number of ReadSharedReq hits (Count)
system.l3cache.ReadSharedReq.hits::total        81920                       # number of ReadSharedReq hits (Count)
system.l3cache.ReadSharedReq.misses::cpu.inst            2                       # number of ReadSharedReq misses (Count)
system.l3cache.ReadSharedReq.misses::total            2                       # number of ReadSharedReq misses (Count)
system.l3cache.ReadSharedReq.missLatency::cpu.inst       160000                       # number of ReadSharedReq miss ticks (Tick)
system.l3cache.ReadSharedReq.missLatency::total       160000                       # number of ReadSharedReq miss ticks (Tick)
system.l3cache.ReadSharedReq.accesses::cpu.inst            2                       # number of ReadSharedReq accesses(hits+misses) (Count)
system.l3cache.ReadSharedReq.accesses::cpu.data        81920                       # number of ReadSharedReq accesses(hits+misses) (Count)
system.l3cache.ReadSharedReq.accesses::total        81922                       # number of ReadSharedReq accesses(hits+misses) (Count)
system.l3cache.ReadSharedReq.missRate::cpu.inst            1                       # miss rate for ReadSharedReq accesses (Ratio)
system.l3cache.ReadSharedReq.missRate::total     0.000024                       # miss rate for ReadSharedReq accesses (Ratio)
system.l3cache.ReadSharedReq.avgMissLatency::cpu.inst        80000                       # average ReadSharedReq miss latency ((Tick/Count))
system.l3cache.ReadSharedReq.avgMissLatency::total        80000                       # average ReadSharedReq miss latency ((Tick/Count))
system.l3cache.ReadSharedReq.mshrMisses::cpu.inst            2                       # number of ReadSharedReq MSHR misses (Count)
system.l3cache.ReadSharedReq.mshrMisses::total            2                       # number of ReadSharedReq MSHR misses (Count)
system.l3cache.ReadSharedReq.mshrMissLatency::cpu.inst       120000                       # number of ReadSharedReq MSHR miss ticks (Tick)
system.l3cache.ReadSharedReq.mshrMissLatency::total       120000                       # number of ReadSharedReq MSHR miss ticks (Tick)
system.l3cache.ReadSharedReq.mshrMissRate::cpu.inst            1                       # mshr miss rate for ReadSharedReq accesses (Ratio)
system.l3cache.ReadSharedReq.mshrMissRate::total     0.000024                       # mshr miss rate for ReadSharedReq accesses (Ratio)
system.l3cache.ReadSharedReq.avgMshrMissLatency::cpu.inst        60000                       # average ReadSharedReq mshr miss latency ((Tick/Count))
system.l3cache.ReadSharedReq.avgMshrMissLatency::total        60000                       # average ReadSharedReq mshr miss latency ((Tick/Count))
system.l3cache.WritebackDirty.hits::writebacks        46099                       # number of WritebackDirty hits (Count)
system.l3cache.WritebackDirty.hits::total        46099                       # number of WritebackDirty hits (Count)
system.l3cache.WritebackDirty.accesses::writebacks        46099                       # number of WritebackDirty accesses(hits+misses) (Count)
system.l3cache.WritebackDirty.accesses::total        46099                       # number of WritebackDirty accesses(hits+misses) (Count)
system.l3cache.power_state.pwrStateResidencyTicks::UNDEFINED  11694835000                       # Cumulative time (in ticks) in various power states (Tick)
system.l3cache.tags.tagsInUse            12826.999973                       # Average ticks per tags in use ((Tick/Count))
system.l3cache.tags.totalRefs                       0                       # Total number of references to valid blocks. (Count)
system.l3cache.tags.sampledRefs                     0                       # Sample count of references to valid blocks. (Count)
system.l3cache.tags.avgRefs                       nan                       # Average number of references to valid blocks. ((Count/Count))
system.l3cache.tags.warmupTick                      0                       # The tick when the warmup percentage was hit. (Tick)
system.l3cache.tags.occupancies::cpu.inst   360.999973                       # Average occupied blocks per tick, per requestor ((Count/Tick))
system.l3cache.tags.occupancies::cpu.data        12466                       # Average occupied blocks per tick, per requestor ((Count/Tick))
system.l3cache.tags.avgOccs::cpu.inst        0.005508                       # Average percentage of cache occupancy ((Ratio/Tick))
system.l3cache.tags.avgOccs::cpu.data        0.190216                       # Average percentage of cache occupancy ((Ratio/Tick))
system.l3cache.tags.avgOccs::total           0.195724                       # Average percentage of cache occupancy ((Ratio/Tick))
system.l3cache.tags.occupanciesTaskId::1024        12827                       # Occupied blocks per task id (Count)
system.l3cache.tags.ageTaskId_1024::3            7102                       # Occupied blocks per task id, per block age (Count)
system.l3cache.tags.ageTaskId_1024::4            5725                       # Occupied blocks per task id, per block age (Count)
system.l3cache.tags.ratioOccsTaskId::1024     0.195724                       # Ratio of occupied blocks and all blocks, per task id (Ratio)
system.l3cache.tags.tagAccesses               1966106                       # Number of tag accesses (Count)
system.l3cache.tags.dataAccesses              1966106                       # Number of data accesses (Count)
system.l3cache.tags.power_state.pwrStateResidencyTicks::UNDEFINED  11694835000                       # Cumulative time (in ticks) in various power states (Tick)
system.mem_ctrl.avgPriority_cpu.inst::samples         2.00                       # Average QoS priority value for accepted requests (Count)
system.mem_ctrl.priorityMinLatency       0.000000018750                       # per QoS priority minimum request to response latency (Second)
system.mem_ctrl.priorityMaxLatency       0.000000018750                       # per QoS priority maximum request to response latency (Second)
system.mem_ctrl.numReadWriteTurnArounds             0                       # Number of turnarounds from READ to WRITE (Count)
system.mem_ctrl.numWriteReadTurnArounds             0                       # Number of turnarounds from WRITE to READ (Count)
system.mem_ctrl.numStayReadState                 2338                       # Number of times bus staying in READ state (Count)
system.mem_ctrl.numStayWriteState                   0                       # Number of times bus staying in WRITE state (Count)
system.mem_ctrl.readReqs                            2                       # Number of read requests accepted (Count)
system.mem_ctrl.writeReqs                           0                       # Number of write requests accepted (Count)
system.mem_ctrl.readBursts                          2                       # Number of controller read bursts, including those serviced by the write queue (Count)
system.mem_ctrl.writeBursts                         0                       # Number of controller write bursts, including those merged in the write queue (Count)
system.mem_ctrl.servicedByWrQ                       0                       # Number of controller read bursts serviced by the write queue (Count)
system.mem_ctrl.mergedWrBursts                      0                       # Number of controller write bursts merged with an existing one (Count)
system.mem_ctrl.neitherReadNorWriteReqs             0                       # Number of requests that are neither read nor write (Count)
system.mem_ctrl.avgRdQLen                        1.00                       # Average read queue length when enqueuing ((Count/Tick))
[...]
system.mem_ctrl.requestorReadAvgLat::cpu.inst     28840.43                       # Per-requestor read average memory access latency ((Tick/Count))
system.mem_ctrl.requestorReadAvgLat::cpu.data     28399.12                       # Per-requestor read average memory access latency ((Tick/Count))
system.mem_ctrl.dram.bytesRead::cpu.inst        15040                       # Number of bytes read from this memory (Byte)
system.mem_ctrl.dram.bytesRead::cpu.data         3648                       # Number of bytes read from this memory (Byte)
system.mem_ctrl.dram.bytesRead::total           18688                       # Number of bytes read from this memory (Byte)
system.mem_ctrl.dram.bytesInstRead::cpu.inst        15040                       # Number of instructions bytes read from this memory (Byte)
system.mem_ctrl.dram.bytesInstRead::total        15040                       # Number of instructions bytes read from this memory (Byte)
system.mem_ctrl.dram.numReads::cpu.inst           235                       # Number of read requests responded to by this memory (Count)
system.mem_ctrl.dram.numReads::cpu.data            57                       # Number of read requests responded to by this memory (Count)
system.mem_ctrl.dram.numReads::total              292                       # Number of read requests responded to by this memory (Count)
system.mem_ctrl.dram.bwRead::cpu.inst         1645091                       # Total read bandwidth from this memory ((Byte/Second))
system.mem_ctrl.dram.bwRead::cpu.data          399022                       # Total read bandwidth from this memory ((Byte/Second))
system.mem_ctrl.dram.bwRead::total            2044113                       # Total read bandwidth from this memory ((Byte/Second))
system.mem_ctrl.dram.bwInstRead::cpu.inst      1645091                       # Instruction read bandwidth from this memory ((Byte/Second))
system.mem_ctrl.dram.bwInstRead::total        1645091                       # Instruction read bandwidth from this memory ((Byte/Second))
system.mem_ctrl.dram.bwTotal::cpu.inst        1645091                       # Total bandwidth to/from this memory ((Byte/Second))
system.mem_ctrl.dram.bwTotal::cpu.data         399022                       # Total bandwidth to/from this memory ((Byte/Second))
system.mem_ctrl.dram.bwTotal::total           2044113                       # Total bandwidth to/from this memory ((Byte/Second))
system.mem_ctrl.dram.readBursts                   292                       # Number of DRAM read bursts (Count)
system.mem_ctrl.dram.writeBursts                    0                       # Number of DRAM write bursts (Count)
system.mem_ctrl.dram.perBankRdBursts::0            15                       # Per bank write bursts (Count)
system.mem_ctrl.dram.perBankRdBursts::1             6                       # Per bank write bursts (Count)
system.mem_ctrl.dram.perBankRdBursts::2             7                       # Per bank write bursts (Count)
system.mem_ctrl.dram.perBankRdBursts::3             2                       # Per bank write bursts (Count)
system.mem_ctrl.dram.perBankRdBursts::4             0                       # Per bank write bursts (Count)
system.mem_ctrl.dram.perBankRdBursts::5             1                       # Per bank write bursts (Count)
system.mem_ctrl.dram.perBankRdBursts::6             7                       # Per bank write bursts (Count)
system.mem_ctrl.dram.perBankRdBursts::7            20                       # Per bank write bursts (Count)
system.mem_ctrl.dram.perBankRdBursts::8             4                       # Per bank write bursts (Count)
system.mem_ctrl.dram.perBankRdBursts::9            31                       # Per bank write bursts (Count)
system.mem_ctrl.dram.perBankRdBursts::10           39                       # Per bank write bursts (Count)
system.mem_ctrl.dram.perBankRdBursts::11           43                       # Per bank write bursts (Count)
system.mem_ctrl.dram.perBankRdBursts::12           24                       # Per bank write bursts (Count)
system.mem_ctrl.dram.perBankRdBursts::13           70                       # Per bank write bursts (Count)
system.mem_ctrl.dram.perBankRdBursts::14           18                       # Per bank write bursts (Count)
system.mem_ctrl.dram.perBankRdBursts::15            5                       # Per bank write bursts (Count)
system.mem_ctrl.dram.perBankWrBursts::0             0                       # Per bank write bursts (Count)
system.mem_ctrl.dram.perBankWrBursts::1             0                       # Per bank write bursts (Count)
system.mem_ctrl.dram.perBankWrBursts::2             0                       # Per bank write bursts (Count)
system.mem_ctrl.dram.perBankWrBursts::3             0                       # Per bank write bursts (Count)
system.mem_ctrl.dram.perBankWrBursts::4             0                       # Per bank write bursts (Count)
system.mem_ctrl.dram.perBankWrBursts::5             0                       # Per bank write bursts (Count)
system.mem_ctrl.dram.perBankWrBursts::6             0                       # Per bank write bursts (Count)
system.mem_ctrl.dram.perBankWrBursts::7             0                       # Per bank write bursts (Count)
system.mem_ctrl.dram.perBankWrBursts::8             0                       # Per bank write bursts (Count)
system.mem_ctrl.dram.perBankWrBursts::9             0                       # Per bank write bursts (Count)
system.mem_ctrl.dram.perBankWrBursts::10            0                       # Per bank write bursts (Count)
system.mem_ctrl.dram.perBankWrBursts::11            0                       # Per bank write bursts (Count)
system.mem_ctrl.dram.perBankWrBursts::12            0                       # Per bank write bursts (Count)
system.mem_ctrl.dram.perBankWrBursts::13            0                       # Per bank write bursts (Count)
system.mem_ctrl.dram.perBankWrBursts::14            0                       # Per bank write bursts (Count)
system.mem_ctrl.dram.perBankWrBursts::15            0                       # Per bank write bursts (Count)
system.mem_ctrl.dram.totQLat                  2921250                       # Total ticks spent queuing (Tick)
system.mem_ctrl.dram.totBusLat                1460000                       # Total ticks spent in databus transfers (Tick)
system.mem_ctrl.dram.totMemAccLat             8396250                       # Total ticks spent from burst creation until serviced by the DRAM (Tick)
system.mem_ctrl.dram.avgQLat                 10004.28                       # Average queueing delay per DRAM burst ((Tick/Count))
system.mem_ctrl.dram.avgBusLat                5000.00                       # Average bus latency per DRAM burst ((Tick/Count))
system.mem_ctrl.dram.avgMemAccLat            28754.28                       # Average memory access latency per DRAM burst ((Tick/Count))
system.mem_ctrl.dram.readRowHits                  210                       # Number of row buffer hits during reads (Count)
system.mem_ctrl.dram.writeRowHits                   0                       # Number of row buffer hits during writes (Count)
system.mem_ctrl.dram.readRowHitRate             71.92                       # Row buffer hit rate for reads (Ratio)
system.mem_ctrl.dram.writeRowHitRate              nan                       # Row buffer hit rate for writes (Ratio)
system.mem_ctrl.dram.bytesPerActivate::samples           80                       # Bytes accessed per row activation (Byte)
system.mem_ctrl.dram.bytesPerActivate::mean   226.400000                       # Bytes accessed per row activation (Byte)
system.mem_ctrl.dram.bytesPerActivate::gmean   158.537958                       # Bytes accessed per row activation (Byte)
system.mem_ctrl.dram.bytesPerActivate::stdev   211.393544                       # Bytes accessed per row activation (Byte)
system.mem_ctrl.dram.bytesPerActivate::0-127           28     35.00%     35.00% # Bytes accessed per row activation (Byte)
system.mem_ctrl.dram.bytesPerActivate::128-255           24     30.00%     65.00% # Bytes accessed per row activation (Byte)
system.mem_ctrl.dram.bytesPerActivate::256-383           12     15.00%     80.00% # Bytes accessed per row activation (Byte)
system.mem_ctrl.dram.bytesPerActivate::384-511            7      8.75%     88.75% # Bytes accessed per row activation (Byte)
system.mem_ctrl.dram.bytesPerActivate::512-639            3      3.75%     92.50% # Bytes accessed per row activation (Byte)
system.mem_ctrl.dram.bytesPerActivate::640-767            2      2.50%     95.00% # Bytes accessed per row activation (Byte)
system.mem_ctrl.dram.bytesPerActivate::768-895            2      2.50%     97.50% # Bytes accessed per row activation (Byte)
system.mem_ctrl.dram.bytesPerActivate::896-1023            1      1.25%     98.75% # Bytes accessed per row activation (Byte)
system.mem_ctrl.dram.bytesPerActivate::1024-1151            1      1.25%    100.00% # Bytes accessed per row activation (Byte)
system.mem_ctrl.dram.bytesPerActivate::total           80                       # Bytes accessed per row activation (Byte)
system.mem_ctrl.dram.bytesRead                  18688                       # Total bytes read (Byte)
system.mem_ctrl.dram.bytesWritten                   0                       # Total bytes written (Byte)
system.mem_ctrl.dram.avgRdBW                 2.044113                       # Average DRAM read bandwidth in MiBytes/s ((Byte/Second))
system.mem_ctrl.dram.avgWrBW                        0                       # Average DRAM write bandwidth in MiBytes/s ((Byte/Second))
system.mem_ctrl.dram.peakBW                  12800.00                       # Theoretical peak bandwidth in MiByte/s ((Byte/Second))
system.mem_ctrl.dram.busUtil                     0.02                       # Data bus utilization in percentage (Ratio)
system.mem_ctrl.dram.busUtilRead                 0.02                       # Data bus utilization in percentage for reads (Ratio)
system.mem_ctrl.dram.busUtilWrite                0.00                       # Data bus utilization in percentage for writes (Ratio)
system.mem_ctrl.dram.pageHitRate                71.92                       # Row buffer hit rate, read and write combined (Ratio)
system.mem_ctrl.dram.power_state.pwrStateResidencyTicks::UNDEFINED  11743610000                       # Cumulative time (in ticks) in various power states (Tick)
system.mem_ctrl.dram.rank0.actEnergy           192780                       # Energy for activate commands per rank (pJ) (Joule)
system.mem_ctrl.dram.rank0.preEnergy            98670                       # Energy for precharge commands per rank (pJ) (Joule)
system.mem_ctrl.dram.rank0.readEnergy          428400                       # Energy for read commands per rank (pJ) (Joule)
system.mem_ctrl.dram.rank0.writeEnergy              0                       # Energy for write commands per rank (pJ) (Joule)
system.mem_ctrl.dram.rank0.refreshEnergy 721587360.000000                       # Energy for refresh commands per rank (pJ) (Joule)
system.mem_ctrl.dram.rank0.actBackEnergy    150193860                       # Energy for active background per rank (pJ) (Joule)
system.mem_ctrl.dram.rank0.preBackEnergy   3384334080                       # Energy for precharge background per rank (pJ) (Joule)
system.mem_ctrl.dram.rank0.actPowerDownEnergy            0                       # Energy for active power-down per rank (pJ) (Joule)
system.mem_ctrl.dram.rank0.prePowerDownEnergy            0                       # Energy for precharge power-down per rank (pJ) (Joule)
system.mem_ctrl.dram.rank0.selfRefreshEnergy            0                       # Energy for self refresh per rank (pJ) (Joule)
system.mem_ctrl.dram.rank0.totalEnergy     4256835150                       # Total energy per rank (pJ) (Joule)
system.mem_ctrl.dram.rank0.averagePower    465.617121                       # Core power per rank (mW) (Watt)
system.mem_ctrl.dram.rank0.totalIdleTime            0                       # Total Idle time Per DRAM Rank (Tick)
system.mem_ctrl.dram.rank0.pwrStateTime::IDLE   8797114750                       # Time in different power states (Tick)
system.mem_ctrl.dram.rank0.pwrStateTime::REF    305240000                       # Time in different power states (Tick)
system.mem_ctrl.dram.rank0.pwrStateTime::SREF            0                       # Time in different power states (Tick)
system.mem_ctrl.dram.rank0.pwrStateTime::PRE_PDN            0                       # Time in different power states (Tick)
system.mem_ctrl.dram.rank0.pwrStateTime::ACT     40387750                       # Time in different power states (Tick)
system.mem_ctrl.dram.rank0.pwrStateTime::ACT_PDN            0                       # Time in different power states (Tick)
system.mem_ctrl.dram.rank1.actEnergy           414120                       # Energy for activate commands per rank (pJ) (Joule)
system.mem_ctrl.dram.rank1.preEnergy           204930                       # Energy for precharge commands per rank (pJ) (Joule)
system.mem_ctrl.dram.rank1.readEnergy         1677900                       # Energy for read commands per rank (pJ) (Joule)
system.mem_ctrl.dram.rank1.writeEnergy              0                       # Energy for write commands per rank (pJ) (Joule)
system.mem_ctrl.dram.rank1.refreshEnergy 721587360.000000                       # Energy for refresh commands per rank (pJ) (Joule)
system.mem_ctrl.dram.rank1.actBackEnergy    156047760                       # Energy for active background per rank (pJ) (Joule)
system.mem_ctrl.dram.rank1.preBackEnergy   3379353600                       # Energy for precharge background per rank (pJ) (Joule)
system.mem_ctrl.dram.rank1.actPowerDownEnergy            0                       # Energy for active power-down per rank (pJ) (Joule)
system.mem_ctrl.dram.rank1.prePowerDownEnergy            0                       # Energy for precharge power-down per rank (pJ) (Joule)
system.mem_ctrl.dram.rank1.selfRefreshEnergy            0                       # Energy for self refresh per rank (pJ) (Joule)
system.mem_ctrl.dram.rank1.totalEnergy     4259285670                       # Total energy per rank (pJ) (Joule)
system.mem_ctrl.dram.rank1.averagePower    465.885161                       # Core power per rank (mW) (Watt)
system.mem_ctrl.dram.rank1.totalIdleTime            0                       # Total Idle time Per DRAM Rank (Tick)
system.mem_ctrl.dram.rank1.pwrStateTime::IDLE   8784147750                       # Time in different power states (Tick)
system.mem_ctrl.dram.rank1.pwrStateTime::REF    305240000                       # Time in different power states (Tick)
system.mem_ctrl.dram.rank1.pwrStateTime::SREF            0                       # Time in different power states (Tick)
system.mem_ctrl.dram.rank1.pwrStateTime::PRE_PDN            0                       # Time in different power states (Tick)
system.mem_ctrl.dram.rank1.pwrStateTime::ACT     53222250                       # Time in different power states (Tick)
system.mem_ctrl.dram.rank1.pwrStateTime::ACT_PDN            0                       # Time in different power states (Tick)
system.mem_ctrl.power_state.pwrStateResidencyTicks::UNDEFINED  11743610000                       # Cumulative time (in ticks) in various power states (Tick)
system.membus.transDist::ReadResp                 275                       # Transaction distribution (Count)
system.membus.transDist::ReadExReq                 17                       # Transaction distribution (Count)
system.membus.transDist::ReadExResp                17                       # Transaction distribution (Count)
system.membus.transDist::ReadSharedReq            275                       # Transaction distribution (Count)
system.membus.pktCount_system.l3cache.mem_side_port::system.mem_ctrl.port          584                       # Packet count per connected requestor and responder (Count)
system.membus.pktCount_system.l3cache.mem_side_port::total          584                       # Packet count per connected requestor and responder (Count)
system.membus.pktCount::total                     584                       # Packet count per connected requestor and responder (Count)
system.membus.pktSize_system.l3cache.mem_side_port::system.mem_ctrl.port        18688                       # Cumulative packet size per connected requestor and responder (Byte)
system.membus.pktSize_system.l3cache.mem_side_port::total        18688                       # Cumulative packet size per connected requestor and responder (Byte)
system.membus.pktSize::total                    18688                       # Cumulative packet size per connected requestor and responder (Byte)
system.membus.snoops                                0                       # Total snoops (Count)
system.membus.snoopTraffic                          0                       # Total snoop traffic (Byte)
system.membus.snoopFanout::samples                292                       # Request fanout histogram (Count)
system.membus.snoopFanout::mean                     0                       # Request fanout histogram (Count)
system.membus.snoopFanout::stdev                    0                       # Request fanout histogram (Count)
system.membus.snoopFanout::underflows               0      0.00%      0.00% # Request fanout histogram (Count)
system.membus.snoopFanout::0                      292    100.00%    100.00% # Request fanout histogram (Count)
system.membus.snoopFanout::1                        0      0.00%    100.00% # Request fanout histogram (Count)
system.membus.snoopFanout::overflows                0      0.00%    100.00% # Request fanout histogram (Count)
system.membus.snoopFanout::min_value                0                       # Request fanout histogram (Count)
system.membus.snoopFanout::max_value                0                       # Request fanout histogram (Count)
system.membus.snoopFanout::total                  292                       # Request fanout histogram (Count)
system.membus.power_state.pwrStateResidencyTicks::UNDEFINED  11743610000                       # Cumulative time (in ticks) in various power states (Tick)
system.membus.reqLayer2.occupancy              292000                       # Layer occupancy (ticks) (Tick)
system.membus.reqLayer2.utilization               0.0                       # Layer utilization (Ratio)
system.membus.respLayer0.occupancy            1560750                       # Layer occupancy (ticks) (Tick)
system.membus.respLayer0.utilization              0.0                       # Layer utilization (Ratio)
system.membus.snoop_filter.totRequests            292                       # Total number of requests made to the snoop filter. (Count)
system.membus.snoop_filter.hitSingleRequests            0                       # Number of requests hitting in the snoop filter with a single holder of the requested data. (Count)
system.membus.snoop_filter.hitMultiRequests            0                       # Number of requests hitting in the snoop filter with multiple (>1) holders of the requested data. (Count)
system.membus.snoop_filter.totSnoops                0                       # Total number of snoops made to the snoop filter. (Count)
system.membus.snoop_filter.hitSingleSnoops            0                       # Number of snoops hitting in the snoop filter with a single holder of the requested data. (Count)
system.membus.snoop_filter.hitMultiSnoops            0                       # Number of snoops hitting in the snoop filter with multiple (>1) holders of the requested data. (Count)
system.workload.inst.arm                            0                       # number of arm instructions executed (Count)
system.workload.inst.quiesce                        0                       # number of quiesce instructions executed (Count)

---------- End Simulation Statistics   ----------
