Global frequency set at 1000000000000 ticks per second
gem5 Simulator System.  https://www.gem5.org
gem5 is copyrighted software; use the --copyright option for details.

gem5 version 22.0.0.2
gem5 compiled Dec 28 2022 03:29:38
gem5 started Dec 28 2022 04:41:52
gem5 executing on v100-gpu-4, pid 6022
command line: build/X86/gem5.opt configs/learning_gem5/DBI/BaseDBI/two_level.py configs/learning_gem5/DBI/BaseDBI/add -n 1000000 -t 3

Beginning simulation!

The time taken is 1180.964000 milliseconds
Introducing buffer overflow - Accessing a location beyond the range
The value written is: 4
Exiting @ tick 2064078987000 because exiting with last active thread context
